4KP0_A
 OpenBabel04062520543D

 27 30  0  0  0  0  0  0  0  0999 V2000
  -10.4280  -16.5430   -7.0410 N   0  0  0  0  0  0  0  0  0  0  0  0
  -11.2330  -16.8450   -8.0790 C   0  0  0  0  0  0  0  0  0  0  0  0
   -9.2170  -16.4160   -7.5800 C   0  0  0  0  0  0  0  0  0  0  0  0
  -10.7860  -16.4120   -5.6290 C   0  0  0  0  0  0  0  0  0  0  0  0
  -10.3860  -16.8840   -9.3080 C   0  0  0  0  0  0  0  0  0  0  0  0
  -12.5980  -17.1130   -8.2080 C   0  0  0  0  0  0  0  0  0  0  0  0
   -9.1280  -16.6090   -8.9130 N   0  0  0  0  0  0  0  0  0  0  0  0
   -7.8100  -16.0010   -6.6220 S   0  0  0  0  0  0  0  0  0  0  0  0
  -11.1400  -15.0010   -5.2660 C   0  0  0  0  0  0  0  0  0  0  0  0
  -10.9430  -17.1840  -10.5460 C   0  0  0  0  0  0  0  0  0  0  0  0
  -13.1220  -17.4140   -9.4750 C   0  0  0  0  0  0  0  0  0  0  0  0
   -6.3590  -16.9050   -7.0970 C   0  0  0  0  0  0  0  0  0  0  0  0
  -11.7560  -14.6070   -3.9370 C   0  0  0  0  0  0  0  0  0  0  0  0
  -10.9510  -13.9250   -6.1430 C   0  0  0  0  0  0  0  0  0  0  0  0
  -12.3120  -17.4510  -10.6260 C   0  0  0  0  0  0  0  0  0  0  0  0
   -6.6870  -18.3380   -7.5350 C   0  0  0  0  0  0  0  0  0  0  0  0
  -11.9730  -13.1430   -3.9400 C   0  0  0  0  0  0  0  0  0  0  0  0
  -12.1660  -15.3330   -2.6920 C   0  0  0  0  0  0  0  0  0  0  0  0
  -11.4790  -12.4530   -5.3760 S   0  0  0  0  0  0  0  0  0  0  0  0
   -6.9070  -19.3020   -6.3620 C   0  0  0  0  0  0  0  0  0  0  0  0
  -12.5090  -12.4470   -2.8560 C   0  0  0  0  0  0  0  0  0  0  0  0
  -12.7100  -14.5650   -1.6560 C   0  0  0  0  0  0  0  0  0  0  0  0
  -12.0160  -16.8320   -2.5220 C   0  0  0  0  0  0  0  0  0  0  0  0
   -8.2480  -19.0420   -5.7400 C   0  0  0  0  0  0  0  0  0  0  0  0
  -12.8810  -13.1670   -1.7270 C   0  0  0  0  0  0  0  0  0  0  0  0
   -8.3140  -18.5380   -4.5830 O   0  3  0  0  0  0  0  0  0  0  0  0
   -9.2110  -19.3480   -6.4750 O   0  0  0  0  0  0  0  0  0  0  0  0
  1  2  1  0  0  0  0
  1  3  1  0  0  0  0
  1  4  1  0  0  0  0
  2  5  2  0  0  0  0
  2  6  1  0  0  0  0
  3  7  2  0  0  0  0
  3  8  1  0  0  0  0
  4  9  1  0  0  0  0
  5  7  1  0  0  0  0
  5 10  1  0  0  0  0
  6 11  2  0  0  0  0
  8 12  1  0  0  0  0
  9 13  1  0  0  0  0
  9 14  2  0  0  0  0
 10 15  2  0  0  0  0
 11 15  1  0  0  0  0
 12 16  1  0  0  0  0
 13 17  2  0  0  0  0
 13 18  1  0  0  0  0
 14 19  1  0  0  0  0
 16 20  1  0  0  0  0
 17 19  1  0  0  0  0
 17 21  1  0  0  0  0
 18 22  2  0  0  0  0
 18 23  1  0  0  0  0
 20 24  1  0  0  0  0
 21 25  2  0  0  0  0
 22 25  1  0  0  0  0
 24 26  1  0  0  0  0
 24 27  2  0  0  0  0
M  CHG  1  26   1
M  END
