1KLT_A
 OpenBabel04062513013D

 10 10  0  0  0  0  0  0  0  0999 V2000
  -11.1460  -16.9450   -5.5510 C   0  0  0  0  0  0  0  0  0  0  0  0
  -11.4620  -16.0780   -4.3260 C   0  0  0  0  0  0  0  0  0  0  0  0
   -8.9970  -18.0300   -4.5700 O   0  0  0  0  0  0  0  0  0  0  0  0
  -11.1710  -14.7180   -4.3270 C   0  0  0  0  0  0  0  0  0  0  0  0
   -9.9400  -19.2070   -6.4450 O   0  0  0  0  0  0  0  0  0  0  0  0
  -11.5650  -13.8930   -3.2520 C   0  0  0  0  0  0  0  0  0  0  0  0
  -12.2400  -14.4140   -2.1810 C   0  0  0  0  0  0  0  0  0  0  0  0
  -12.5310  -15.7630   -2.1530 C   0  0  0  0  0  0  0  0  0  0  0  0
  -12.1430  -16.6030   -3.2160 C   0  0  0  0  0  0  0  0  0  0  0  0
  -10.1330  -18.4430   -5.2430 S   0  0  0  0  0  0  0  0  0  0  0  0
  1  2  1  0  0  0  0
  1 10  1  0  0  0  0
  2  4  2  0  0  0  0
  2  9  1  0  0  0  0
  3 10  2  0  0  0  0
  4  6  1  0  0  0  0
  5 10  2  0  0  0  0
  6  7  2  0  0  0  0
  7  8  1  0  0  0  0
  8  9  2  0  0  0  0
M  END
