1NN6_A
 OpenBabel04062513013D

 14 14  0  0  0  0  0  0  0  0999 V2000
   11.1310  -20.7710    9.4780 C   0  0  0  0  0  0  0  0  0  0  0  0
   12.2200  -20.0220    8.7360 C   0  0  2  0  0  0  0  0  0  0  0  0
   12.3750  -20.5990    7.4070 N   0  0  0  0  0  0  0  0  0  0  0  0
   13.5420  -20.0700    9.5110 C   0  0  1  0  0  0  0  0  0  0  0  0
   14.3680  -19.0170    9.0820 O   0  0  0  0  0  0  0  0  0  0  0  0
   13.3770  -19.9390   11.0220 C   0  0  2  0  0  0  0  0  0  0  0  0
   14.5610  -20.3470   11.6800 O   0  0  0  0  0  0  0  0  0  0  0  0
   12.2030  -20.7880   11.4780 C   0  0  2  0  0  0  0  0  0  0  0  0
   11.0610  -20.3210   10.8060 O   0  0  0  0  0  0  0  0  0  0  0  0
   12.0110  -20.7220   12.9830 C   0  0  0  0  0  0  0  0  0  0  0  0
   12.7500  -21.7790   13.5570 O   0  0  0  0  0  0  0  0  0  0  0  0
   11.4850  -20.4520    6.4130 C   0  0  0  0  0  0  0  0  0  0  0  0
   10.8220  -19.4300    6.2150 O   0  0  0  0  0  0  0  0  0  0  0  0
   11.3130  -21.6290    5.4970 C   0  0  0  0  0  0  0  0  0  0  0  0
  1  2  1  0  0  0  0
  1  9  1  0  0  0  0
  2  3  1  6  0  0  0
  2  4  1  0  0  0  0
  3 12  1  0  0  0  0
  4  5  1  6  0  0  0
  4  6  1  0  0  0  0
  6  7  1  1  0  0  0
  6  8  1  0  0  0  0
  8  9  1  0  0  0  0
  8 10  1  1  0  0  0
 10 11  1  0  0  0  0
 12 13  2  0  0  0  0
 12 14  1  0  0  0  0
M  END
