1NN6_A
 OpenBabel04062513013D

 14 14  0  0  0  0  0  0  0  0999 V2000
  -22.3890  -18.2660  -18.8650 C   0  0  0  0  0  0  0  0  0  0  0  0
  -22.8770  -16.8950  -19.2840 C   0  0  2  0  0  0  0  0  0  0  0  0
  -24.0980  -16.6400  -18.5640 N   0  0  0  0  0  0  0  0  0  0  0  0
  -23.0940  -16.7230  -20.8030 C   0  0  1  0  0  0  0  0  0  0  0  0
  -23.0410  -15.3520  -21.1820 O   0  0  0  0  0  0  0  0  0  0  0  0
  -22.0860  -17.5130  -21.6480 C   0  0  2  0  0  0  0  0  0  0  0  0
  -22.5900  -17.6540  -22.9650 O   0  0  0  0  0  0  0  0  0  0  0  0
  -21.8600  -18.8600  -20.9530 C   0  0  2  0  0  0  0  0  0  0  0  0
  -21.3130  -18.5770  -19.7020 O   0  0  0  0  0  0  0  0  0  0  0  0
  -20.9420  -19.8790  -21.6100 C   0  0  0  0  0  0  0  0  0  0  0  0
  -21.6220  -21.1210  -21.6040 O   0  0  0  0  0  0  0  0  0  0  0  0
  -24.6910  -15.4610  -18.6820 C   0  0  0  0  0  0  0  0  0  0  0  0
  -24.3890  -14.4930  -17.9840 O   0  0  0  0  0  0  0  0  0  0  0  0
  -25.7510  -15.3620  -19.7370 C   0  0  0  0  0  0  0  0  0  0  0  0
  1  2  1  0  0  0  0
  1  9  1  0  0  0  0
  2  3  1  1  0  0  0
  2  4  1  0  0  0  0
  3 12  1  0  0  0  0
  4  5  1  1  0  0  0
  4  6  1  0  0  0  0
  6  7  1  6  0  0  0
  6  8  1  0  0  0  0
  8  9  1  0  0  0  0
  8 10  1  6  0  0  0
 10 11  1  0  0  0  0
 12 13  2  0  0  0  0
 12 14  1  0  0  0  0
M  END
