1PJP_A
 OpenBabel04062520543D

 14 14  0  0  0  0  0  0  0  0999 V2000
    6.2420  -22.9030    9.0650 C   0  0  0  0  0  0  0  0  0  0  0  0
    6.5190  -21.8280   10.1270 C   0  0  2  0  0  0  0  0  0  0  0  0
    5.4120  -20.8890   10.2030 N   0  0  0  0  0  0  0  0  0  0  0  0
    7.7920  -21.0610    9.7820 C   0  0  1  0  0  0  0  0  0  0  0  0
    8.0970  -20.1440   10.8260 O   0  0  0  0  0  0  0  0  0  0  0  0
    8.9540  -22.0340    9.5910 C   0  0  2  0  0  0  0  0  0  0  0  0
   10.1130  -21.3220    9.1700 O   0  0  0  0  0  0  0  0  0  0  0  0
    8.5760  -23.0860    8.5440 C   0  0  2  0  0  0  0  0  0  0  0  0
    7.3720  -23.7800    8.9430 O   0  0  0  0  0  0  0  0  0  0  0  0
    9.6560  -24.1320    8.3510 C   0  0  0  0  0  0  0  0  0  0  0  0
    9.4610  -24.8410    7.1380 O   0  0  0  0  0  0  0  0  0  0  0  0
    4.5360  -20.9340   11.2050 C   0  0  0  0  0  0  0  0  0  0  0  0
    4.5610  -21.7930   12.0900 O   0  0  0  0  0  0  0  0  0  0  0  0
    3.4310  -19.8870   11.1840 C   0  0  0  0  0  0  0  0  0  0  0  0
  1  2  1  0  0  0  0
  1  9  1  0  0  0  0
  2  3  1  6  0  0  0
  2  4  1  0  0  0  0
  3 12  1  0  0  0  0
  4  5  1  1  0  0  0
  4  6  1  0  0  0  0
  6  7  1  6  0  0  0
  6  8  1  0  0  0  0
  8  9  1  0  0  0  0
  8 10  1  1  0  0  0
 10 11  1  0  0  0  0
 12 13  2  0  0  0  0
 12 14  1  0  0  0  0
M  END
