1PJP_A
 OpenBabel04062520543D

 14 14  0  0  0  0  0  0  0  0999 V2000
  -22.3150  -18.1870  -19.0410 C   0  0  0  0  0  0  0  0  0  0  0  0
  -22.5140  -18.7870  -20.4330 C   0  0  2  0  0  0  0  0  0  0  0  0
  -21.3110  -19.4870  -20.8430 N   0  0  0  0  0  0  0  0  0  0  0  0
  -22.8370  -17.6960  -21.4450 C   0  0  1  0  0  0  0  0  0  0  0  0
  -23.0930  -18.2810  -22.7150 O   0  0  0  0  0  0  0  0  0  0  0  0
  -24.0580  -16.9240  -20.9670 C   0  0  2  0  0  0  0  0  0  0  0  0
  -24.3530  -15.8730  -21.8740 O   0  0  0  0  0  0  0  0  0  0  0  0
  -23.7910  -16.3530  -19.5740 C   0  0  2  0  0  0  0  0  0  0  0  0
  -23.4670  -17.4230  -18.6490 O   0  0  0  0  0  0  0  0  0  0  0  0
  -25.0150  -15.6300  -19.0240 C   0  0  0  0  0  0  0  0  0  0  0  0
  -24.7530  -15.0320  -17.7620 O   0  0  0  0  0  0  0  0  0  0  0  0
  -21.2950  -20.8140  -20.9180 C   0  0  0  0  0  0  0  0  0  0  0  0
  -22.2710  -21.5170  -20.6440 O   0  0  0  0  0  0  0  0  0  0  0  0
  -19.9900  -21.4600  -21.3550 C   0  0  0  0  0  0  0  0  0  0  0  0
  1  2  1  0  0  0  0
  1  9  1  0  0  0  0
  2  3  1  6  0  0  0
  2  4  1  0  0  0  0
  3 12  1  0  0  0  0
  4  5  1  6  0  0  0
  4  6  1  0  0  0  0
  6  7  1  6  0  0  0
  6  8  1  0  0  0  0
  8  9  1  0  0  0  0
  8 10  1  1  0  0  0
 10 11  1  0  0  0  0
 12 13  2  0  0  0  0
 12 14  1  0  0  0  0
M  END
