1PJP_A
 OpenBabel04062520543D

  5  4  0  0  0  0  0  0  0  0999 V2000
  -16.0110   -9.2270   -9.1270 N   0  0  0  0  0  0  0  0  0  0  0  0
  -16.0510  -10.6110   -8.5740 C   0  0  2  0  0  0  0  0  0  0  0  0
  -14.7390  -11.3270   -8.8900 C   0  0  0  0  0  0  0  0  0  0  0  0
  -14.3710  -11.4600  -10.0580 O   0  0  0  0  0  0  0  0  0  0  0  0
  -17.2370  -11.3740   -9.1820 C   0  0  0  0  0  0  0  0  0  0  0  0
  1  2  1  0  0  0  0
  2  3  1  0  0  0  0
  2  5  1  6  0  0  0
  3  4  1  0  0  0  0
M  END
