1T31_A
 OpenBabel04062520543D

  5  4  0  0  0  0  0  0  0  0999 V2000
  -27.2730   -5.4180  -15.2320 O   0  0  0  0  0  0  0  0  0  0  0  0
  -26.6700   -3.2160  -14.4750 O   0  0  0  0  0  0  0  0  0  0  0  0
  -28.7660   -3.5670  -15.6060 O   0  5  0  0  0  0  0  0  0  0  0  0
  -28.4440   -4.4310  -13.3770 O   0  0  0  0  0  0  0  0  0  0  0  0
  -27.7890   -4.1570  -14.6720 S   0  0  0  0  0  0  0  0  0  0  0  0
  1  5  1  0  0  0  0
  2  5  1  0  0  0  0
  3  5  1  0  0  0  0
  4  5  2  0  0  0  0
M  CHG  1   3  -1
M  END
