1T31_A
 OpenBabel04062520543D

  5  4  0  0  0  0  0  0  0  0999 V2000
   -6.5330  -42.6770   14.8720 O   0  0  0  0  0  0  0  0  0  0  0  0
   -4.3570  -41.7060   14.2570 O   0  0  0  0  0  0  0  0  0  0  0  0
   -4.4980  -43.9320   15.2890 O   0  5  0  0  0  0  0  0  0  0  0  0
   -5.2180  -43.5260   13.0090 O   0  0  0  0  0  0  0  0  0  0  0  0
   -5.1120  -42.9870   14.3600 S   0  0  0  0  0  0  0  0  0  0  0  0
  1  5  1  0  0  0  0
  2  5  1  0  0  0  0
  3  5  1  0  0  0  0
  4  5  2  0  0  0  0
M  CHG  1   3  -1
M  END
