1T31_A
 OpenBabel04062520543D

  5  4  0  0  0  0  0  0  0  0999 V2000
   -4.0990  -17.2790   15.8520 O   0  0  0  0  0  0  0  0  0  0  0  0
   -2.1840  -15.8860   15.4330 O   0  0  0  0  0  0  0  0  0  0  0  0
   -4.2310  -14.9050   16.2480 O   0  5  0  0  0  0  0  0  0  0  0  0
   -2.9090  -16.3090   17.6960 O   0  0  0  0  0  0  0  0  0  0  0  0
   -3.3560  -16.0920   16.3060 S   0  0  0  0  0  0  0  0  0  0  0  0
  1  5  1  0  0  0  0
  2  5  1  0  0  0  0
  3  5  1  0  0  0  0
  4  5  2  0  0  0  0
M  CHG  1   3  -1
M  END
