1T31_A
 OpenBabel04062520543D

 14 14  0  0  0  0  0  0  0  0999 V2000
    6.2220  -22.9630    8.5710 C   0  0  0  0  0  0  0  0  0  0  0  0
    6.7110  -21.8520    9.5420 C   0  0  2  0  0  0  0  0  0  0  0  0
    5.6830  -20.8370    9.8080 N   0  0  0  0  0  0  0  0  0  0  0  0
    7.9310  -21.1460    8.9360 C   0  0  1  0  0  0  0  0  0  0  0  0
    8.3580  -20.1430    9.8630 O   0  0  0  0  0  0  0  0  0  0  0  0
    9.0170  -22.2090    8.6920 C   0  0  2  0  0  0  0  0  0  0  0  0
   10.0890  -21.5740    8.0090 O   0  0  0  0  0  0  0  0  0  0  0  0
    8.4880  -23.3490    7.7850 C   0  0  2  0  0  0  0  0  0  0  0  0
    7.2570  -23.9050    8.3060 O   0  0  0  0  0  0  0  0  0  0  0  0
    9.4900  -24.4840    7.5390 C   0  0  0  0  0  0  0  0  0  0  0  0
    9.7510  -25.1890    8.7480 O   0  0  0  0  0  0  0  0  0  0  0  0
    4.9990  -20.6630   10.9550 C   0  0  0  0  0  0  0  0  0  0  0  0
    4.1540  -19.7730   11.0690 O   0  0  0  0  0  0  0  0  0  0  0  0
    5.2290  -21.5390   12.1520 C   0  0  0  0  0  0  0  0  0  0  0  0
  1  2  1  0  0  0  0
  1  9  1  0  0  0  0
  2  3  1  6  0  0  0
  2  4  1  0  0  0  0
  3 12  1  0  0  0  0
  4  5  1  1  0  0  0
  4  6  1  0  0  0  0
  6  7  1  6  0  0  0
  6  8  1  0  0  0  0
  8  9  1  0  0  0  0
  8 10  1  1  0  0  0
 10 11  1  0  0  0  0
 12 13  2  0  0  0  0
 12 14  1  0  0  0  0
M  END
