1T31_A
 OpenBabel04062520543D

 12 12  0  0  0  0  0  0  0  0999 V2000
    3.9600  -22.8900   -0.8610 O   0  0  0  0  0  0  0  0  0  0  0  0
    1.6420  -29.5610   -1.3720 O   0  0  0  0  0  0  0  0  0  0  0  0
    5.0860  -23.5650   -1.4680 C   0  0  0  0  0  0  0  0  0  0  0  0
    3.1290  -30.7240    0.1560 O   0  0  0  0  0  0  0  0  0  0  0  0
    4.6010  -24.9040   -2.0670 C   0  0  0  0  0  0  0  0  0  0  0  0
    3.8900  -30.1140   -2.0680 O   0  0  0  0  0  0  0  0  0  0  0  0
    4.0750  -25.7760   -0.9210 N   0  0  0  0  0  0  0  0  0  0  0  0
    2.9310  -25.0310   -0.2280 C   0  0  0  0  0  0  0  0  0  0  0  0
    3.4300  -23.6580    0.2580 C   0  0  0  0  0  0  0  0  0  0  0  0
    3.5660  -27.1240   -1.4060 C   0  0  0  0  0  0  0  0  0  0  0  0
    3.6360  -28.2000   -0.3220 C   0  0  0  0  0  0  0  0  0  0  0  0
    3.0290  -29.7610   -0.9440 S   0  0  0  0  0  0  0  0  0  0  0  0
  1  3  1  0  0  0  0
  1  9  1  0  0  0  0
  2 12  1  0  0  0  0
  3  5  1  0  0  0  0
  4 12  2  0  0  0  0
  5  7  1  0  0  0  0
  6 12  2  0  0  0  0
  7  8  1  0  0  0  0
  7 10  1  0  0  0  0
  8  9  1  0  0  0  0
 10 11  1  0  0  0  0
 11 12  1  0  0  0  0
M  END
