1T31_A
 OpenBabel04062520543D

  5  4  0  0  0  0  0  0  0  0999 V2000
    0.7540  -18.0640   -3.5360 O   0  0  0  0  0  0  0  0  0  0  0  0
    1.3880  -15.7900   -4.0190 O   0  0  0  0  0  0  0  0  0  0  0  0
   -0.6940  -16.2500   -2.8990 O   0  5  0  0  0  0  0  0  0  0  0  0
    1.4070  -16.5890   -1.7540 O   0  0  0  0  0  0  0  0  0  0  0  0
    0.7130  -16.6730   -3.0490 S   0  0  0  0  0  0  0  0  0  0  0  0
  1  5  1  0  0  0  0
  2  5  1  0  0  0  0
  3  5  1  0  0  0  0
  4  5  2  0  0  0  0
M  CHG  1   3  -1
M  END
