1T31_A
 OpenBabel04062520543D

  5  4  0  0  0  0  0  0  0  0999 V2000
  -19.7290  -25.6270   16.2710 O   0  0  0  0  0  0  0  0  0  0  0  0
  -18.9220  -23.5060   15.4700 O   0  0  0  0  0  0  0  0  0  0  0  0
  -21.0370  -23.6280   16.6050 O   0  5  0  0  0  0  0  0  0  0  0  0
  -18.9950  -23.9510   17.8400 O   0  0  0  0  0  0  0  0  0  0  0  0
  -19.6690  -24.1790   16.5480 S   0  0  0  0  0  0  0  0  0  0  0  0
  1  5  1  0  0  0  0
  2  5  1  0  0  0  0
  3  5  1  0  0  0  0
  4  5  2  0  0  0  0
M  CHG  1   3  -1
M  END
