1T31_A
 OpenBabel04062520543D

  5  4  0  0  0  0  0  0  0  0999 V2000
  -27.8430  -22.4430  -14.0710 O   0  0  0  0  0  0  0  0  0  0  0  0
  -29.0050  -20.6090  -15.1050 O   0  0  0  0  0  0  0  0  0  0  0  0
  -29.3470  -21.0910  -12.7640 O   0  5  0  0  0  0  0  0  0  0  0  0
  -27.2510  -20.1840  -13.5140 O   0  0  0  0  0  0  0  0  0  0  0  0
  -28.3610  -21.0820  -13.8630 S   0  0  0  0  0  0  0  0  0  0  0  0
  1  5  1  0  0  0  0
  2  5  1  0  0  0  0
  3  5  1  0  0  0  0
  4  5  2  0  0  0  0
M  CHG  1   3  -1
M  END
