1T31_A
 OpenBabel04062520543D

  5  4  0  0  0  0  0  0  0  0999 V2000
  -20.9730  -11.2610   14.6890 O   0  0  0  0  0  0  0  0  0  0  0  0
  -19.7720  -11.8440   12.6810 O   0  0  0  0  0  0  0  0  0  0  0  0
  -22.0780  -11.1320   12.5580 O   0  5  0  0  0  0  0  0  0  0  0  0
  -20.3530   -9.5490   13.1070 O   0  0  0  0  0  0  0  0  0  0  0  0
  -20.7930  -10.9480   13.2590 S   0  0  0  0  0  0  0  0  0  0  0  0
  1  5  1  0  0  0  0
  2  5  1  0  0  0  0
  3  5  1  0  0  0  0
  4  5  2  0  0  0  0
M  CHG  1   3  -1
M  END
