2HVX_A
 OpenBabel04062520543D

 28 31  0  0  0  0  0  0  0  0999 V2000
  -15.8610  -19.3790  -12.4760 C   0  0  0  0  0  0  0  0  0  0  0  0
  -14.7000  -18.5380  -12.4830 C   0  0  0  0  0  0  0  0  0  0  0  0
  -14.0890  -18.1710  -11.2350 C   0  0  0  0  0  0  0  0  0  0  0  0
  -12.9360  -17.3340  -11.2550 C   0  0  0  0  0  0  0  0  0  0  0  0
  -12.3380  -16.9670  -10.0070 C   0  0  0  0  0  0  0  0  0  0  0  0
  -11.3130  -16.3470   -7.1750 C   0  0  0  0  0  0  0  0  0  0  0  0
  -10.9980  -16.3380   -5.6400 C   0  0  2  0  0  0  0  0  0  0  0  0
  -11.1660  -14.9420   -5.0180 C   0  0  0  0  0  0  0  0  0  0  0  0
  -11.7720  -14.7710   -3.6130 C   0  0  0  0  0  0  0  0  0  0  0  0
  -12.2520  -15.7730   -2.6820 C   0  0  0  0  0  0  0  0  0  0  0  0
  -12.7840  -15.3600   -1.3950 C   0  0  0  0  0  0  0  0  0  0  0  0
  -16.4070  -19.8540  -11.2400 C   0  0  0  0  0  0  0  0  0  0  0  0
  -15.8020  -19.4920   -9.9870 C   0  0  0  0  0  0  0  0  0  0  0  0
  -14.6460  -18.6560   -9.9810 C   0  0  0  0  0  0  0  0  0  0  0  0
  -14.0340  -18.2840   -8.7390 C   0  0  0  0  0  0  0  0  0  0  0  0
  -12.8710  -17.4350   -8.7510 C   0  0  0  0  0  0  0  0  0  0  0  0
  -10.7810  -13.7190   -5.7010 C   0  0  0  0  0  0  0  0  0  0  0  0
  -11.8600  -13.3200   -3.1790 C   0  0  0  0  0  0  0  0  0  0  0  0
  -12.3620  -17.1450   -7.5080 N   0  0  0  0  0  0  0  0  0  0  0  0
   -8.2600  -15.8460   -5.8670 O   0  0  0  0  0  0  0  0  0  0  0  0
   -9.0870  -17.4340   -4.0260 O   0  0  0  0  0  0  0  0  0  0  0  0
   -9.1290  -18.2370   -6.4360 O   0  0  0  0  0  0  0  0  0  0  0  0
  -10.6310  -15.6770   -7.9550 O   0  0  0  0  0  0  0  0  0  0  0  0
  -12.3870  -12.9430   -1.9090 C   0  0  0  0  0  0  0  0  0  0  0  0
  -12.8420  -13.9810   -1.0290 C   0  0  0  0  0  0  0  0  0  0  0  0
  -11.1760  -12.2720   -4.5850 S   0  0  0  0  0  0  0  0  0  0  0  0
  -13.3760  -16.5730   -0.2530 Cl  0  0  0  0  0  0  0  0  0  0  0  0
   -9.3230  -17.0060   -5.4290 P   0  0  0  0  0  0  0  0  0  0  0  0
  1  2  2  0  0  0  0
  1 12  1  0  0  0  0
  2  3  1  0  0  0  0
  3  4  2  0  0  0  0
  3 14  1  0  0  0  0
  4  5  1  0  0  0  0
  5 16  2  0  0  0  0
  6 19  1  0  0  0  0
  6 23  2  0  0  0  0
  7  6  1  6  0  0  0
  7  8  1  0  0  0  0
  7 28  1  0  0  0  0
  8  9  1  0  0  0  0
  8 17  2  0  0  0  0
  9 10  2  0  0  0  0
  9 18  1  0  0  0  0
 10 11  1  0  0  0  0
 11 25  2  0  0  0  0
 11 27  1  0  0  0  0
 12 13  2  0  0  0  0
 13 14  1  0  0  0  0
 14 15  2  0  0  0  0
 15 16  1  0  0  0  0
 16 19  1  0  0  0  0
 17 26  1  0  0  0  0
 18 24  2  0  0  0  0
 18 26  1  0  0  0  0
 20 28  1  0  0  0  0
 21 28  2  0  0  0  0
 22 28  2  0  0  0  0
 24 25  1  0  0  0  0
M  END
