3N7O_A
 OpenBabel04062520543D

 28 30  0  0  0  0  0  0  0  0999 V2000
  -13.0430  -15.8070   -0.7420 Cl  0  0  0  0  0  0  0  0  0  0  0  0
   -9.3260  -17.2600   -5.7170 P   0  0  0  0  0  0  0  0  0  0  0  0
   -7.9340  -16.3240   -6.3110 C   0  0  0  0  0  0  0  0  0  0  0  0
   -9.1940  -17.5600   -4.2660 O   0  0  0  0  0  0  0  0  0  0  0  0
   -9.2980  -18.5820   -6.5700 O   0  0  0  0  0  0  0  0  0  0  0  0
  -10.8880  -16.3480   -6.0220 C   0  0  2  0  0  0  0  0  0  0  0  0
  -11.3190  -16.5390   -7.5230 C   0  0  2  0  0  0  0  0  0  0  0  0
  -10.7770  -15.9880   -8.4490 O   0  0  0  0  0  0  0  0  0  0  0  0
  -12.6340  -17.0760   -7.6380 N   0  0  0  0  0  0  0  0  0  0  0  0
  -13.2870  -17.3280   -8.8820 C   0  0  0  0  0  0  0  0  0  0  0  0
  -14.4550  -17.9880   -8.8810 C   0  0  0  0  0  0  0  0  0  0  0  0
  -15.1080  -18.5240  -10.0950 C   0  0  0  0  0  0  0  0  0  0  0  0
  -16.3570  -19.1650  -10.0650 C   0  0  0  0  0  0  0  0  0  0  0  0
  -16.9560  -19.6520  -11.2180 C   0  0  0  0  0  0  0  0  0  0  0  0
  -16.2960  -19.4670  -12.4290 C   0  0  0  0  0  0  0  0  0  0  0  0
  -15.0560  -18.8380  -12.4820 C   0  0  0  0  0  0  0  0  0  0  0  0
  -14.4570  -18.3550  -11.3250 C   0  0  0  0  0  0  0  0  0  0  0  0
  -10.9340  -14.9120   -5.5140 C   0  0  0  0  0  0  0  0  0  0  0  0
  -10.5770  -13.7870   -6.1800 C   0  0  0  0  0  0  0  0  0  0  0  0
  -10.8350  -12.3370   -5.3000 S   0  0  0  0  0  0  0  0  0  0  0  0
  -11.4570  -13.1720   -3.9290 C   0  0  0  0  0  0  0  0  0  0  0  0
  -11.9140  -12.5920   -2.7410 C   0  0  0  0  0  0  0  0  0  0  0  0
  -12.3920  -13.4030   -1.7220 C   0  0  0  0  0  0  0  0  0  0  0  0
  -12.3940  -14.7790   -1.9720 C   0  0  0  0  0  0  0  0  0  0  0  0
  -11.9470  -15.3620   -3.1330 C   0  0  0  0  0  0  0  0  0  0  0  0
  -11.4660  -14.5620   -4.1680 C   0  0  0  0  0  0  0  0  0  0  0  0
  -16.8440  -19.9180  -13.5510 F   0  0  0  0  0  0  0  0  0  0  0  0
  -14.4520  -18.6990  -13.6720 F   0  0  0  0  0  0  0  0  0  0  0  0
  1 24  1  0  0  0  0
  2  3  1  0  0  0  0
  2  4  2  0  0  0  0
  2  5  2  0  0  0  0
  6  2  1  6  0  0  0
  6  7  1  0  0  0  0
  6 18  1  0  0  0  0
  7  8  1  6  0  0  0
  7  9  1  0  0  0  0
  9 10  1  0  0  0  0
 10 11  1  0  0  0  0
 11 12  1  0  0  0  0
 12 13  2  0  0  0  0
 12 17  1  0  0  0  0
 13 14  1  0  0  0  0
 14 15  2  0  0  0  0
 15 16  1  0  0  0  0
 15 27  1  0  0  0  0
 16 17  2  0  0  0  0
 16 28  1  0  0  0  0
 18 19  2  0  0  0  0
 18 26  1  0  0  0  0
 19 20  1  0  0  0  0
 20 21  1  0  0  0  0
 21 22  2  0  0  0  0
 21 26  1  0  0  0  0
 22 23  1  0  0  0  0
 23 24  2  0  0  0  0
 24 25  1  0  0  0  0
 25 26  2  0  0  0  0
M  END
