3N7O_A
 OpenBabel04062520543D

  7  0  0  0  0  0  0  0  0  0999 V2000
  -19.5150  -11.3260   12.9930 C   0  0  0  0  0  0  0  0  0  0  0  0
  -19.7010  -11.3090   14.2170 O   0  0  0  0  0  0  0  0  0  0  0  0
  -18.4850  -12.1520   12.3020 C   0  0  0  0  0  0  0  0  0  0  0  0
  -20.5120  -10.8450   12.2230 O   0  0  0  0  0  0  0  0  0  0  0  0
  -18.1540  -11.6480   10.9410 C   0  0  0  0  0  0  0  0  0  0  0  0
  -17.3310  -10.6980   10.7350 O   0  0  0  0  0  0  0  0  0  0  0  0
  -18.7450  -12.1780    9.8880 O   0  0  0  0  0  0  0  0  0  0  0  0
M  END
