3N7O_A
 OpenBabel04062520543D

 14 14  0  0  0  0  0  0  0  0999 V2000
   11.6280  -21.9470    8.1700 C   0  0  0  0  0  0  0  0  0  0  0  0
   12.5480  -21.3410    7.1200 C   0  0  2  0  0  0  0  0  0  0  0  0
   12.4140  -22.0690    5.8700 N   0  0  0  0  0  0  0  0  0  0  0  0
   14.0020  -21.3430    7.5800 C   0  0  1  0  0  0  0  0  0  0  0  0
   14.7690  -20.5410    6.7060 O   0  0  0  0  0  0  0  0  0  0  0  0
   14.1290  -20.8050    8.9980 C   0  0  2  0  0  0  0  0  0  0  0  0
   15.4390  -21.0530    9.4740 O   0  0  0  0  0  0  0  0  0  0  0  0
   13.1130  -21.4510    9.9320 C   0  0  2  0  0  0  0  0  0  0  0  0
   11.8020  -21.2970    9.4130 O   0  0  0  0  0  0  0  0  0  0  0  0
   13.2050  -20.8420   11.3290 C   0  0  0  0  0  0  0  0  0  0  0  0
   12.2980  -21.4840   12.1990 O   0  0  0  0  0  0  0  0  0  0  0  0
   11.7920  -21.5080    4.8360 C   0  0  0  0  0  0  0  0  0  0  0  0
   11.4620  -20.3230    4.8300 O   0  0  0  0  0  0  0  0  0  0  0  0
   11.5080  -22.3840    3.6520 C   0  0  0  0  0  0  0  0  0  0  0  0
  1  2  1  0  0  0  0
  1  9  1  0  0  0  0
  2  3  1  6  0  0  0
  2  4  1  0  0  0  0
  3 12  1  0  0  0  0
  4  5  1  6  0  0  0
  4  6  1  0  0  0  0
  6  7  1  1  0  0  0
  6  8  1  0  0  0  0
  8  9  1  0  0  0  0
  8 10  1  1  0  0  0
 10 11  1  0  0  0  0
 12 13  2  0  0  0  0
 12 14  1  0  0  0  0
M  END
