3S0N_A
 OpenBabel04062520543D

 14 14  0  0  0  0  0  0  0  0999 V2000
  -22.4510  -18.6250  -19.0440 C   0  0  0  0  0  0  0  0  0  0  0  0
  -22.5090  -19.2290  -20.4490 C   0  0  2  0  0  0  0  0  0  0  0  0
  -21.2410  -19.8510  -20.7730 N   0  0  0  0  0  0  0  0  0  0  0  0
  -22.8270  -18.1380  -21.4760 C   0  0  1  0  0  0  0  0  0  0  0  0
  -23.0230  -18.7290  -22.7520 O   0  0  0  0  0  0  0  0  0  0  0  0
  -24.0830  -17.3600  -21.0720 C   0  0  2  0  0  0  0  0  0  0  0  0
  -24.2580  -16.2530  -21.9430 O   0  0  0  0  0  0  0  0  0  0  0  0
  -23.9630  -16.8610  -19.6270 C   0  0  2  0  0  0  0  0  0  0  0  0
  -23.6890  -17.9680  -18.7360 O   0  0  0  0  0  0  0  0  0  0  0  0
  -25.2380  -16.1940  -19.1370 C   0  0  0  0  0  0  0  0  0  0  0  0
  -24.9510  -15.0880  -18.2900 O   0  0  0  0  0  0  0  0  0  0  0  0
  -21.1790  -21.1640  -20.9720 C   0  0  0  0  0  0  0  0  0  0  0  0
  -21.6550  -21.7090  -21.9680 O   0  0  0  0  0  0  0  0  0  0  0  0
  -20.4970  -22.0000  -19.9020 C   0  0  0  0  0  0  0  0  0  0  0  0
  1  2  1  0  0  0  0
  1  9  1  0  0  0  0
  2  3  1  6  0  0  0
  2  4  1  0  0  0  0
  3 12  1  0  0  0  0
  4  5  1  6  0  0  0
  4  6  1  0  0  0  0
  6  7  1  6  0  0  0
  6  8  1  0  0  0  0
  8  9  1  0  0  0  0
  8 10  1  1  0  0  0
 10 11  1  0  0  0  0
 12 13  2  0  0  0  0
 12 14  1  0  0  0  0
M  END
