3S0N_A
 OpenBabel04062520543D

 14 14  0  0  0  0  0  0  0  0999 V2000
    6.0770  -22.8640    9.2240 C   0  0  0  0  0  0  0  0  0  0  0  0
    6.1300  -21.6780   10.1870 C   0  0  2  0  0  0  0  0  0  0  0  0
    4.8480  -21.0050   10.1990 N   0  0  0  0  0  0  0  0  0  0  0  0
    7.2290  -20.7080    9.7480 C   0  0  1  0  0  0  0  0  0  0  0  0
    7.3570  -19.6610   10.7010 O   0  0  0  0  0  0  0  0  0  0  0  0
    8.5660  -21.4460    9.6080 C   0  0  2  0  0  0  0  0  0  0  0  0
    9.5420  -20.5740    9.0530 O   0  0  0  0  0  0  0  0  0  0  0  0
    8.4060  -22.6790    8.7080 C   0  0  2  0  0  0  0  0  0  0  0  0
    7.3470  -23.5300    9.2040 O   0  0  0  0  0  0  0  0  0  0  0  0
    9.6660  -23.5190    8.6530 C   0  0  0  0  0  0  0  0  0  0  0  0
    9.7130  -24.2900    7.4620 O   0  0  0  0  0  0  0  0  0  0  0  0
    4.3370  -20.5720   11.3450 C   0  0  0  0  0  0  0  0  0  0  0  0
    4.1400  -21.3080   12.3110 O   0  0  0  0  0  0  0  0  0  0  0  0
    4.0000  -19.0940   11.4330 C   0  0  0  0  0  0  0  0  0  0  0  0
  1  2  1  0  0  0  0
  1  9  1  0  0  0  0
  2  3  1  6  0  0  0
  2  4  1  0  0  0  0
  3 12  1  0  0  0  0
  4  5  1  1  0  0  0
  4  6  1  0  0  0  0
  6  7  1  6  0  0  0
  6  8  1  0  0  0  0
  8  9  1  0  0  0  0
  8 10  1  1  0  0  0
 10 11  1  0  0  0  0
 12 13  2  0  0  0  0
 12 14  1  0  0  0  0
M  END
