4AFQ_B
 OpenBabel04062520543D

 13 12  0  0  0  0  0  0  0  0999 V2000
   -7.2900  -19.4050   -5.9120 C   0  0  0  0  0  0  0  0  0  0  0  0
   -8.5680  -18.7630   -5.4010 C   0  0  0  0  0  0  0  0  0  0  0  0
   -8.7510  -18.7540   -4.1710 O   0  0  0  0  0  0  0  0  0  0  0  0
   -9.4050  -18.2880   -6.1970 O   0  0  0  0  0  0  0  0  0  0  0  0
   -6.5940  -18.5230   -6.9540 C   0  0  0  0  0  0  0  0  0  0  0  0
   -6.8980  -17.0570   -6.6750 C   0  0  0  0  0  0  0  0  0  0  0  0
   -7.6250  -16.3690   -7.4250 O   0  0  0  0  0  0  0  0  0  0  0  0
   -6.3900  -16.5650   -5.6480 O   0  0  0  0  0  0  0  0  0  0  0  0
   -6.9810  -19.0700   -8.3340 C   0  0  0  0  0  0  0  0  0  0  0  0
   -7.8770  -18.1510   -9.1080 C   0  0  0  0  0  0  0  0  0  0  0  0
   -7.3500  -17.4420   -9.9900 O   0  0  0  0  0  0  0  0  0  0  0  0
   -9.0930  -18.1380   -8.8410 O   0  0  0  0  0  0  0  0  0  0  0  0
   -5.1730  -18.6720   -6.8550 O   0  0  0  0  0  0  0  0  0  0  0  0
  1  2  1  0  0  0  0
  1  5  1  0  0  0  0
  2  3  1  0  0  0  0
  2  4  2  0  0  0  0
  5  6  1  0  0  0  0
  5  9  1  0  0  0  0
  5 13  1  0  0  0  0
  6  7  1  0  0  0  0
  6  8  2  0  0  0  0
  9 10  1  0  0  0  0
 10 11  1  0  0  0  0
 10 12  2  0  0  0  0
M  END
