4AFS_A
 OpenBabel04062520543D

  5  4  0  0  0  0  0  0  0  0999 V2000
  -15.5640  -18.1060   18.7060 P   0  0  0  0  0  0  0  0  0  0  0  0
  -16.6540  -17.0950   18.4720 O   0  0  0  0  0  0  0  0  0  0  0  0
  -14.5750  -17.5530   19.7020 O   0  0  0  0  0  0  0  0  0  0  0  0
  -14.8380  -18.3890   17.4160 O   0  5  0  0  0  0  0  0  0  0  0  0
  -16.1730  -19.3820   19.2400 O   0  0  0  0  0  0  0  0  0  0  0  0
  1  2  1  0  0  0  0
  1  3  1  0  0  0  0
  1  4  1  0  0  0  0
  1  5  2  0  0  0  0
M  CHG  1   4  -1
M  END
