4AFS_A
 OpenBabel04062520543D

  5  4  0  0  0  0  0  0  0  0999 V2000
   -7.6030  -18.6250   -5.6030 P   0  0  0  0  0  0  0  0  0  0  0  0
   -6.6100  -17.5140   -5.8340 O   0  0  0  0  0  0  0  0  0  0  0  0
   -8.6530  -18.1570   -4.6400 O   0  0  0  0  0  0  0  0  0  0  0  0
   -6.8970  -19.8170   -5.0120 O   0  5  0  0  0  0  0  0  0  0  0  0
   -8.2210  -18.9990   -6.9280 O   0  0  0  0  0  0  0  0  0  0  0  0
  1  2  1  0  0  0  0
  1  3  1  0  0  0  0
  1  4  1  0  0  0  0
  1  5  2  0  0  0  0
M  CHG  1   4  -1
M  END
