4AFS_A
 OpenBabel04062520543D

  6  5  0  0  0  0  0  0  0  0999 V2000
  -29.2110  -23.6850   10.4330 C   0  0  0  0  0  0  0  0  0  0  0  0
  -30.2290  -23.3090   11.3680 O   0  0  0  0  0  0  0  0  0  0  0  0
  -28.5280  -24.9830   10.8510 C   0  0  0  0  0  0  0  0  0  0  0  0
  -27.1800  -24.7170   11.2860 O   0  0  0  0  0  0  0  0  0  0  0  0
  -28.5280  -25.9060    9.6370 C   0  0  0  0  0  0  0  0  0  0  0  0
  -28.5240  -27.2870   10.0270 O   0  0  0  0  0  0  0  0  0  0  0  0
  1  2  1  0  0  0  0
  1  3  1  0  0  0  0
  3  4  1  0  0  0  0
  3  5  1  0  0  0  0
  5  6  1  0  0  0  0
M  END
