4AG1_A
 OpenBabel04062520543D

  5  4  0  0  0  0  0  0  0  0999 V2000
  -28.5710  -20.9980  -15.5590 O   0  0  0  0  0  0  0  0  0  0  0  0
  -26.5770  -20.3020  -14.3600 O   0  0  0  0  0  0  0  0  0  0  0  0
  -28.1350  -21.7850  -13.2850 O   0  5  0  0  0  0  0  0  0  0  0  0
  -26.8060  -22.6150  -15.0750 O   0  0  0  0  0  0  0  0  0  0  0  0
  -27.5340  -21.4100  -14.5860 S   0  0  0  0  0  0  0  0  0  0  0  0
  1  5  1  0  0  0  0
  2  5  1  0  0  0  0
  3  5  1  0  0  0  0
  4  5  2  0  0  0  0
M  CHG  1   3  -1
M  END
