4AG2_A
 OpenBabel04062520543D

 12 12  0  0  0  0  0  0  0  0999 V2000
  -20.9180   -4.5980    1.0530 O   0  0  0  0  0  0  0  0  0  0  0  0
  -17.0490    1.9050   -0.4640 O   0  0  0  0  0  0  0  0  0  0  0  0
  -21.2060   -3.1850    1.1750 C   0  0  0  0  0  0  0  0  0  0  0  0
  -16.8170    0.3400   -2.3030 O   0  0  0  0  0  0  0  0  0  0  0  0
  -20.4810   -2.3490    0.1040 C   0  0  0  0  0  0  0  0  0  0  0  0
  -15.7120   -0.0970   -0.1800 O   0  0  0  0  0  0  0  0  0  0  0  0
  -19.0360   -2.6510    0.1840 N   0  0  0  0  0  0  0  0  0  0  0  0
  -18.8410   -4.0930   -0.0790 C   0  0  0  0  0  0  0  0  0  0  0  0
  -19.5270   -4.9230    1.0170 C   0  0  0  0  0  0  0  0  0  0  0  0
  -18.2650   -1.8130   -0.7530 C   0  0  0  0  0  0  0  0  0  0  0  0
  -18.2050   -0.3850   -0.2210 C   0  0  0  0  0  0  0  0  0  0  0  0
  -16.8980    0.4700   -0.8290 S   0  0  0  0  0  0  0  0  0  0  0  0
  1  3  1  0  0  0  0
  1  9  1  0  0  0  0
  2 12  1  0  0  0  0
  3  5  1  0  0  0  0
  4 12  2  0  0  0  0
  5  7  1  0  0  0  0
  6 12  2  0  0  0  0
  7  8  1  0  0  0  0
  7 10  1  0  0  0  0
  8  9  1  0  0  0  0
 10 11  1  0  0  0  0
 11 12  1  0  0  0  0
M  END
