4AG2_B
 OpenBabel04062520543D

  9  8  0  0  0  0  0  0  0  0999 V2000
  -18.8200   -7.9920   -9.6980 C   0  0  0  0  0  0  0  0  0  0  0  0
  -17.8010   -8.6570   -9.9180 O   0  0  0  0  0  0  0  0  0  0  0  0
  -19.9620   -8.4380   -9.9100 O   0  0  0  0  0  0  0  0  0  0  0  0
  -18.6630   -6.6050   -9.1360 C   0  0  1  0  0  0  0  0  0  0  0  0
  -19.9030   -5.9070   -9.1870 O   0  0  0  0  0  0  0  0  0  0  0  0
  -18.2290   -6.6880   -7.6810 C   0  0  0  0  0  0  0  0  0  0  0  0
  -18.2660   -5.3220   -7.0390 C   0  0  0  0  0  0  0  0  0  0  0  0
  -18.7280   -5.2390   -5.8890 O   0  0  0  0  0  0  0  0  0  0  0  0
  -17.8300   -4.3250   -7.6690 O   0  0  0  0  0  0  0  0  0  0  0  0
  1  2  1  0  0  0  0
  1  3  2  0  0  0  0
  1  4  1  0  0  0  0
  4  5  1  1  0  0  0
  4  6  1  0  0  0  0
  6  7  1  0  0  0  0
  7  8  1  0  0  0  0
  7  9  2  0  0  0  0
M  END
