4AG2_A
 OpenBabel04062520543D

  9  8  0  0  0  0  0  0  0  0999 V2000
  -18.6940   -7.9270   -9.6330 C   0  0  0  0  0  0  0  0  0  0  0  0
  -17.6110   -8.4280   -9.9730 O   0  0  0  0  0  0  0  0  0  0  0  0
  -19.7720   -8.5370   -9.7900 O   0  0  0  0  0  0  0  0  0  0  0  0
  -18.6640   -6.5550   -9.0100 C   0  0  1  0  0  0  0  0  0  0  0  0
  -19.7210   -5.7120   -9.4770 O   0  0  0  0  0  0  0  0  0  0  0  0
  -18.7810   -6.6730   -7.5040 C   0  0  0  0  0  0  0  0  0  0  0  0
  -18.1300   -5.4660   -6.8860 C   0  0  0  0  0  0  0  0  0  0  0  0
  -18.3400   -5.2400   -5.6840 O   0  0  0  0  0  0  0  0  0  0  0  0
  -17.4020   -4.7310   -7.5940 O   0  0  0  0  0  0  0  0  0  0  0  0
  1  2  1  0  0  0  0
  1  3  2  0  0  0  0
  1  4  1  0  0  0  0
  4  5  1  6  0  0  0
  4  6  1  0  0  0  0
  6  7  1  0  0  0  0
  7  8  1  0  0  0  0
  7  9  2  0  0  0  0
M  END
