4K2Y_A
 OpenBabel04062520543D

 14 14  0  0  0  0  0  0  0  0999 V2000
    6.4280  -23.0530    9.4520 C   0  0  0  0  0  0  0  0  0  0  0  0
    6.7010  -21.8660   10.3720 C   0  0  2  0  0  0  0  0  0  0  0  0
    5.4720  -21.1590   10.6710 N   0  0  0  0  0  0  0  0  0  0  0  0
    7.7460  -20.9550    9.7410 C   0  0  1  0  0  0  0  0  0  0  0  0
    7.9800  -19.8290   10.5570 O   0  0  0  0  0  0  0  0  0  0  0  0
    9.0250  -21.7620    9.5470 C   0  0  2  0  0  0  0  0  0  0  0  0
   10.0500  -20.9900    8.9540 O   0  0  0  0  0  0  0  0  0  0  0  0
    8.7540  -22.9950    8.6930 C   0  0  2  0  0  0  0  0  0  0  0  0
    7.6230  -23.7450    9.1230 O   0  0  0  0  0  0  0  0  0  0  0  0
    9.9800  -23.9010    8.7160 C   0  0  0  0  0  0  0  0  0  0  0  0
    9.6170  -25.1740    8.2340 O   0  0  0  0  0  0  0  0  0  0  0  0
    4.7780  -21.4360   11.7720 C   0  0  0  0  0  0  0  0  0  0  0  0
    4.8080  -22.5360   12.3250 O   0  0  0  0  0  0  0  0  0  0  0  0
    3.9300  -20.3380   12.3380 C   0  0  0  0  0  0  0  0  0  0  0  0
  1  2  1  0  0  0  0
  1  9  1  0  0  0  0
  2  3  1  6  0  0  0
  2  4  1  0  0  0  0
  3 12  1  0  0  0  0
  4  5  1  1  0  0  0
  4  6  1  0  0  0  0
  6  7  1  6  0  0  0
  6  8  1  0  0  0  0
  8  9  1  0  0  0  0
  8 10  1  1  0  0  0
 10 11  1  0  0  0  0
 12 13  2  0  0  0  0
 12 14  1  0  0  0  0
M  END
