4K2Y_A
 OpenBabel04062520543D

 11 12  0  0  0  0  0  0  0  0999 V2000
  -10.4920  -11.7140   -5.2300 Cl  0  0  0  0  0  0  0  0  0  0  0  0
  -11.0840  -13.0170   -4.2490 C   0  0  0  0  0  0  0  0  0  0  0  0
  -10.6590  -14.3050   -4.5210 C   0  0  0  0  0  0  0  0  0  0  0  0
  -11.1190  -15.3510   -3.7540 C   0  0  0  0  0  0  0  0  0  0  0  0
  -11.9950  -15.1030   -2.7270 C   0  0  0  0  0  0  0  0  0  0  0  0
  -12.6650  -16.0110   -1.7260 C   0  0  0  0  0  0  0  0  0  0  0  0
  -13.4980  -15.0750   -0.8810 C   0  0  0  0  0  0  0  0  0  0  0  0
  -14.1930  -15.4010    0.0510 O   0  0  0  0  0  0  0  0  0  0  0  0
  -13.3090  -13.8250   -1.3500 N   0  0  0  0  0  0  0  0  0  0  0  0
  -12.4290  -13.8100   -2.4360 C   0  0  0  0  0  0  0  0  0  0  0  0
  -11.9610  -12.7530   -3.2140 C   0  0  0  0  0  0  0  0  0  0  0  0
  1  2  1  0  0  0  0
  2  3  1  0  0  0  0
  2 11  2  0  0  0  0
  3  4  2  0  0  0  0
  4  5  1  0  0  0  0
  5  6  2  0  0  0  0
  5 10  1  0  0  0  0
  6  7  1  0  0  0  0
  7  8  2  0  0  0  0
  7  9  1  0  0  0  0
  9 10  2  0  0  0  0
 10 11  1  0  0  0  0
M  END
