4K5Z_A
 OpenBabel04062520543D

 14 14  0  0  0  0  0  0  0  0999 V2000
    6.0410  -22.9540    9.3410 C   0  0  0  0  0  0  0  0  0  0  0  0
    6.4680  -21.8280   10.2900 C   0  0  2  0  0  0  0  0  0  0  0  0
    5.3600  -20.9450   10.6210 N   0  0  0  0  0  0  0  0  0  0  0  0
    7.6280  -21.0390    9.6860 C   0  0  1  0  0  0  0  0  0  0  0  0
    8.0690  -20.0470   10.6070 O   0  0  0  0  0  0  0  0  0  0  0  0
    8.7770  -21.9770    9.3430 C   0  0  2  0  0  0  0  0  0  0  0  0
    9.8260  -21.2620    8.6960 O   0  0  0  0  0  0  0  0  0  0  0  0
    8.2860  -23.0900    8.4210 C   0  0  2  0  0  0  0  0  0  0  0  0
    7.1890  -23.7930    9.0310 O   0  0  0  0  0  0  0  0  0  0  0  0
    9.3530  -24.1180    8.1170 C   0  0  0  0  0  0  0  0  0  0  0  0
    9.6000  -24.9460    9.2460 O   0  0  0  0  0  0  0  0  0  0  0  0
    4.6360  -21.0850   11.7370 C   0  0  0  0  0  0  0  0  0  0  0  0
    4.8510  -21.9900   12.5430 O   0  0  0  0  0  0  0  0  0  0  0  0
    3.5370  -20.0860   11.9380 C   0  0  0  0  0  0  0  0  0  0  0  0
  1  2  1  0  0  0  0
  1  9  1  0  0  0  0
  2  3  1  6  0  0  0
  2  4  1  0  0  0  0
  3 12  1  0  0  0  0
  4  5  1  1  0  0  0
  4  6  1  0  0  0  0
  6  7  1  6  0  0  0
  6  8  1  0  0  0  0
  8  9  1  0  0  0  0
  8 10  1  1  0  0  0
 10 11  1  0  0  0  0
 12 13  2  0  0  0  0
 12 14  1  0  0  0  0
M  END
