4K69_A
 OpenBabel04062520543D

 14 14  0  0  0  0  0  0  0  0999 V2000
    6.4630  -23.1710    9.1100 C   0  0  0  0  0  0  0  0  0  0  0  0
    6.7870  -22.1040   10.1520 C   0  0  2  0  0  0  0  0  0  0  0  0
    5.6530  -21.2200   10.3290 N   0  0  0  0  0  0  0  0  0  0  0  0
    8.0270  -21.3100    9.7580 C   0  0  1  0  0  0  0  0  0  0  0  0
    8.3930  -20.4630   10.8240 O   0  0  0  0  0  0  0  0  0  0  0  0
    9.1850  -22.2370    9.4230 C   0  0  2  0  0  0  0  0  0  0  0  0
   10.2260  -21.4750    8.8530 O   0  0  0  0  0  0  0  0  0  0  0  0
    8.7460  -23.3110    8.4340 C   0  0  2  0  0  0  0  0  0  0  0  0
    7.5900  -23.9900    8.8920 O   0  0  0  0  0  0  0  0  0  0  0  0
    9.8470  -24.3410    8.2000 C   0  0  0  0  0  0  0  0  0  0  0  0
    9.9300  -25.2160    9.3070 O   0  0  0  0  0  0  0  0  0  0  0  0
    4.9160  -21.2850   11.4320 C   0  0  0  0  0  0  0  0  0  0  0  0
    5.0440  -22.1820   12.2630 O   0  0  0  0  0  0  0  0  0  0  0  0
    3.8970  -20.2120   11.6390 C   0  0  0  0  0  0  0  0  0  0  0  0
  1  2  1  0  0  0  0
  1  9  1  0  0  0  0
  2  3  1  6  0  0  0
  2  4  1  0  0  0  0
  3 12  1  0  0  0  0
  4  5  1  1  0  0  0
  4  6  1  0  0  0  0
  6  7  1  6  0  0  0
  6  8  1  0  0  0  0
  8  9  1  0  0  0  0
  8 10  1  1  0  0  0
 10 11  1  0  0  0  0
 12 13  2  0  0  0  0
 12 14  1  0  0  0  0
M  END
