5YJM_A
 OpenBabel04062520543D

 14 14  0  0  0  0  0  0  0  0999 V2000
    6.4410  -23.4500    9.4280 C   0  0  0  0  0  0  0  0  0  0  0  0
    6.7770  -22.4640   10.5080 C   0  0  2  0  0  0  0  0  0  0  0  0
    5.8130  -21.3910   10.4360 N   0  0  0  0  0  0  0  0  0  0  0  0
    8.0570  -21.7390   10.1620 C   0  0  1  0  0  0  0  0  0  0  0  0
    8.2420  -20.7350   11.1700 O   0  0  0  0  0  0  0  0  0  0  0  0
    9.1660  -22.7710   10.0250 C   0  0  2  0  0  0  0  0  0  0  0  0
   10.2300  -22.0230    9.5280 O   0  0  0  0  0  0  0  0  0  0  0  0
    8.7880  -23.7480    8.8980 C   0  0  2  0  0  0  0  0  0  0  0  0
    7.5540  -24.3880    9.2970 O   0  0  0  0  0  0  0  0  0  0  0  0
    9.8530  -24.7430    8.4910 C   0  0  0  0  0  0  0  0  0  0  0  0
    9.9620  -25.4540    9.7380 O   0  0  0  0  0  0  0  0  0  0  0  0
    4.9470  -21.0670   11.3850 C   0  0  0  0  0  0  0  0  0  0  0  0
    4.2670  -20.0760   11.1230 O   0  0  0  0  0  0  0  0  0  0  0  0
    4.7620  -21.8350   12.6580 C   0  0  0  0  0  0  0  0  0  0  0  0
  1  2  1  0  0  0  0
  1  9  1  0  0  0  0
  2  3  1  6  0  0  0
  2  4  1  0  0  0  0
  3 12  1  0  0  0  0
  4  5  1  1  0  0  0
  4  6  1  0  0  0  0
  6  7  1  6  0  0  0
  6  8  1  0  0  0  0
  8  9  1  0  0  0  0
  8 10  1  1  0  0  0
 10 11  1  0  0  0  0
 12 13  2  0  0  0  0
 12 14  1  0  0  0  0
M  END
