5YJM_A
 OpenBabel04062513013D

 42 45  0  0  0  0  0  0  0  0999 V2000
  -14.0620  -15.1080   -0.4390 Cl  0  0  0  0  0  0  0  0  0  0  0  0
   -9.5190  -16.7380   -6.0850 C   0  0  0  0  0  0  0  0  0  0  0  0
   -8.5670  -17.2150   -5.4810 O   0  0  0  0  0  0  0  0  0  0  0  0
  -10.6310  -16.0430   -5.3110 C   0  0  2  0  0  0  0  0  0  0  0  0
  -10.3050  -15.5350   -3.9220 C   0  0  0  0  0  0  0  0  0  0  0  0
  -11.2990  -14.7250   -3.1850 C   0  0  0  0  0  0  0  0  0  0  0  0
  -11.3480  -13.3640   -3.4580 C   0  0  0  0  0  0  0  0  0  0  0  0
  -12.2810  -12.5790   -2.7430 C   0  0  0  0  0  0  0  0  0  0  0  0
  -13.1250  -13.1220   -1.7910 C   0  0  0  0  0  0  0  0  0  0  0  0
  -13.0530  -14.4950   -1.5850 C   0  0  0  0  0  0  0  0  0  0  0  0
  -12.1690  -15.3190   -2.2700 C   0  0  0  0  0  0  0  0  0  0  0  0
  -12.0540  -16.5900   -5.4820 C   0  0  0  0  0  0  0  0  0  0  0  0
  -12.6080  -16.8510   -6.7640 N   0  0  0  0  0  0  0  0  0  0  0  0
  -12.0880  -16.6140   -7.9950 C   0  0  2  0  0  0  0  0  0  0  0  0
  -12.7030  -16.8990   -9.0550 N   0  0  0  0  0  0  0  0  0  0  0  0
  -10.7090  -16.0340   -8.1670 C   0  0  0  0  0  0  0  0  0  0  0  0
   -9.6840  -16.8250   -7.4700 N   0  0  0  0  0  0  0  0  0  0  0  0
   -8.8430  -17.5560   -8.3230 C   0  0  0  0  0  0  0  0  0  0  0  0
   -9.0200  -17.5890   -9.4980 O   0  0  0  0  0  0  0  0  0  0  0  0
   -7.8980  -18.3130   -7.8050 N   0  0  0  0  0  0  0  0  0  0  0  0
   -6.9490  -19.0970   -8.5830 C   0  0  1  0  0  0  0  0  0  0  0  0
   -5.7180  -18.6270   -7.8580 C   0  0  0  0  0  0  0  0  0  0  0  0
  -10.4990  -12.9840   -4.4580 O   0  0  0  0  0  0  0  0  0  0  0  0
  -10.3870  -11.6340   -4.8920 C   0  0  0  0  0  0  0  0  0  0  0  0
   -5.2130  -19.2200   -6.6610 C   0  0  0  0  0  0  0  0  0  0  0  0
   -4.1040  -18.6970   -5.9890 C   0  0  0  0  0  0  0  0  0  0  0  0
   -3.4920  -17.4920   -6.4720 C   0  0  0  0  0  0  0  0  0  0  0  0
   -4.0350  -16.8730   -7.6310 C   0  0  0  0  0  0  0  0  0  0  0  0
   -5.1300  -17.4280   -8.3030 C   0  0  0  0  0  0  0  0  0  0  0  0
   -7.5160  -20.5220   -8.6790 C   0  0  0  0  0  0  0  0  0  0  0  0
   -2.3010  -16.8220   -5.8110 C   0  0  0  0  0  0  0  0  0  0  0  0
   -1.8130  -15.7440   -6.2960 O   0  0  0  0  0  0  0  0  0  0  0  0
   -1.8000  -17.3640   -4.7770 O   0  0  0  0  0  0  0  0  0  0  0  0
   -6.5380  -21.5710   -8.4190 C   0  0  0  0  0  0  0  0  0  0  0  0
   -3.6310  -19.3830   -4.8860 N   0  0  0  0  0  0  0  0  0  0  0  0
  -14.0150  -17.3690   -8.7790 O   0  0  0  0  0  0  0  0  0  0  0  0
  -14.7490  -17.8590   -9.8090 C   0  0  0  0  0  0  0  0  0  0  0  0
  -15.9740  -18.4430   -9.4570 C   0  0  0  0  0  0  0  0  0  0  0  0
  -16.8140  -19.0120  -10.4190 C   0  0  0  0  0  0  0  0  0  0  0  0
  -16.3980  -19.0910  -11.7520 C   0  0  0  0  0  0  0  0  0  0  0  0
  -15.1720  -18.5280  -12.1090 C   0  0  0  0  0  0  0  0  0  0  0  0
  -14.3150  -17.9490  -11.1410 C   0  0  0  0  0  0  0  0  0  0  0  0
  1 10  1  0  0  0  0
  2  3  2  0  0  0  0
  2  4  1  0  0  0  0
  2 17  1  0  0  0  0
  4  5  1  1  0  0  0
  4 12  1  0  0  0  0
  5  6  1  0  0  0  0
  6  7  2  0  0  0  0
  6 11  1  0  0  0  0
  7  8  1  0  0  0  0
  7 23  1  0  0  0  0
  8  9  2  0  0  0  0
  9 10  1  0  0  0  0
 10 11  2  0  0  0  0
 12 13  1  0  0  0  0
 13 14  1  0  0  0  0
 14 15  1  6  0  0  0
 14 16  1  0  0  0  0
 15 36  1  0  0  0  0
 16 17  1  0  0  0  0
 17 18  1  0  0  0  0
 18 19  2  0  0  0  0
 18 20  1  0  0  0  0
 20 21  1  0  0  0  0
 21 22  1  0  0  0  0
 21 30  1  1  0  0  0
 22 25  2  0  0  0  0
 22 29  1  0  0  0  0
 23 24  1  0  0  0  0
 25 26  1  0  0  0  0
 26 27  2  0  0  0  0
 26 35  1  0  0  0  0
 27 28  1  0  0  0  0
 27 31  1  0  0  0  0
 28 29  2  0  0  0  0
 30 34  1  0  0  0  0
 31 32  1  0  0  0  0
 31 33  1  0  0  0  0
 36 37  1  0  0  0  0
 37 38  2  0  0  0  0
 37 42  1  0  0  0  0
 38 39  1  0  0  0  0
 39 40  2  0  0  0  0
 40 41  1  0  0  0  0
 41 42  2  0  0  0  0
M  END
