5YJM_A
 OpenBabel04062513013D

 14 14  0  0  0  0  0  0  0  0999 V2000
  -23.5300  -19.0950  -18.8260 C   0  0  0  0  0  0  0  0  0  0  0  0
  -23.8150  -19.8760  -20.1040 C   0  0  2  0  0  0  0  0  0  0  0  0
  -22.6710  -20.7460  -20.5590 N   0  0  0  0  0  0  0  0  0  0  0  0
  -24.2870  -18.8250  -21.1600 C   0  0  1  0  0  0  0  0  0  0  0  0
  -24.3990  -19.4660  -22.4060 O   0  0  0  0  0  0  0  0  0  0  0  0
  -25.6210  -18.2150  -20.6740 C   0  0  2  0  0  0  0  0  0  0  0  0
  -26.2930  -17.3510  -21.6240 O   0  0  0  0  0  0  0  0  0  0  0  0
  -25.2900  -17.5240  -19.3300 C   0  0  2  0  0  0  0  0  0  0  0  0
  -24.7960  -18.5470  -18.3620 O   0  0  0  0  0  0  0  0  0  0  0  0
  -26.4560  -16.6820  -18.8000 C   0  0  0  0  0  0  0  0  0  0  0  0
  -27.3900  -17.6880  -18.4130 O   0  0  0  0  0  0  0  0  0  0  0  0
  -21.4420  -20.2610  -20.7980 C   0  0  0  0  0  0  0  0  0  0  0  0
  -21.1520  -19.0490  -20.6560 O   0  0  0  0  0  0  0  0  0  0  0  0
  -20.4600  -21.3170  -21.2540 C   0  0  0  0  0  0  0  0  0  0  0  0
  1  2  1  0  0  0  0
  1  9  1  0  0  0  0
  2  3  1  6  0  0  0
  2  4  1  0  0  0  0
  3 12  1  0  0  0  0
  4  5  1  6  0  0  0
  4  6  1  0  0  0  0
  6  7  1  6  0  0  0
  6  8  1  0  0  0  0
  8  9  1  0  0  0  0
  8 10  1  1  0  0  0
 10 11  1  0  0  0  0
 12 13  2  0  0  0  0
 12 14  1  0  0  0  0
M  END
