5YJP_A
 OpenBabel04062513013D

 14 14  0  0  0  0  0  0  0  0999 V2000
    6.5120  -23.3980    9.4690 C   0  0  0  0  0  0  0  0  0  0  0  0
    6.8400  -22.2700   10.4160 C   0  0  2  0  0  0  0  0  0  0  0  0
    5.8380  -21.2440   10.4040 N   0  0  0  0  0  0  0  0  0  0  0  0
    8.1830  -21.5850   10.0800 C   0  0  1  0  0  0  0  0  0  0  0  0
    8.4330  -20.6270   11.1300 O   0  0  0  0  0  0  0  0  0  0  0  0
    9.2570  -22.6780    9.9820 C   0  0  2  0  0  0  0  0  0  0  0  0
   10.3930  -21.9600    9.4970 O   0  0  0  0  0  0  0  0  0  0  0  0
    8.8720  -23.7320    8.9660 C   0  0  2  0  0  0  0  0  0  0  0  0
    7.6060  -24.3450    9.3520 O   0  0  0  0  0  0  0  0  0  0  0  0
    9.9530  -24.7640    8.6440 C   0  0  0  0  0  0  0  0  0  0  0  0
    9.9660  -25.5190    9.8850 O   0  0  0  0  0  0  0  0  0  0  0  0
    5.0760  -21.0440   11.5220 C   0  0  0  0  0  0  0  0  0  0  0  0
    4.3320  -20.1180   11.4280 O   0  0  0  0  0  0  0  0  0  0  0  0
    4.9470  -21.8820   12.7550 C   0  0  0  0  0  0  0  0  0  0  0  0
  1  2  1  0  0  0  0
  1  9  1  0  0  0  0
  2  3  1  6  0  0  0
  2  4  1  0  0  0  0
  3 12  1  0  0  0  0
  4  5  1  1  0  0  0
  4  6  1  0  0  0  0
  6  7  1  6  0  0  0
  6  8  1  0  0  0  0
  8  9  1  0  0  0  0
  8 10  1  1  0  0  0
 10 11  1  0  0  0  0
 12 13  2  0  0  0  0
 12 14  1  0  0  0  0
M  END
