5YJP_A
 OpenBabel04062520543D

 14 14  0  0  0  0  0  0  0  0999 V2000
  -23.4840  -19.0280  -18.9590 C   0  0  0  0  0  0  0  0  0  0  0  0
  -23.8230  -19.9060  -20.1400 C   0  0  2  0  0  0  0  0  0  0  0  0
  -22.7700  -20.7510  -20.8060 N   0  0  0  0  0  0  0  0  0  0  0  0
  -24.2840  -18.8590  -21.2170 C   0  0  1  0  0  0  0  0  0  0  0  0
  -24.5630  -19.5870  -22.3830 O   0  0  0  0  0  0  0  0  0  0  0  0
  -25.5290  -18.0790  -20.7440 C   0  0  2  0  0  0  0  0  0  0  0  0
  -26.0550  -17.1170  -21.6670 O   0  0  0  0  0  0  0  0  0  0  0  0
  -25.2260  -17.3570  -19.4140 C   0  0  2  0  0  0  0  0  0  0  0  0
  -24.7140  -18.3680  -18.4620 O   0  0  0  0  0  0  0  0  0  0  0  0
  -26.5050  -16.7280  -18.8390 C   0  0  0  0  0  0  0  0  0  0  0  0
  -27.0550  -17.8690  -18.1020 O   0  0  0  0  0  0  0  0  0  0  0  0
  -21.4970  -20.3520  -21.0910 C   0  0  0  0  0  0  0  0  0  0  0  0
  -20.9870  -19.2670  -20.6730 O   0  0  0  0  0  0  0  0  0  0  0  0
  -20.7410  -21.3480  -21.9740 C   0  0  0  0  0  0  0  0  0  0  0  0
  1  2  1  0  0  0  0
  1  9  1  0  0  0  0
  2  3  1  6  0  0  0
  2  4  1  0  0  0  0
  3 12  1  0  0  0  0
  4  5  1  6  0  0  0
  4  6  1  0  0  0  0
  6  7  1  6  0  0  0
  6  8  1  0  0  0  0
  8  9  1  0  0  0  0
  8 10  1  1  0  0  0
 10 11  1  0  0  0  0
 12 13  2  0  0  0  0
 12 14  1  0  0  0  0
M  END
