7H60_A
 OpenBabel04062513013D

 32 35  0  0  0  0  0  0  0  0999 V2000
  -10.4600  -17.1310   -6.6150 N   0  0  0  0  0  0  0  0  0  0  0  0
   -8.8050  -17.7400   -8.0570 C   0  0  0  0  0  0  0  0  0  0  0  0
   -9.0900  -17.3960   -6.7530 C   0  0  0  0  0  0  0  0  0  0  0  0
  -10.0450  -17.6590   -8.7870 C   0  0  0  0  0  0  0  0  0  0  0  0
  -11.0460  -17.2910   -7.8730 C   0  0  0  0  0  0  0  0  0  0  0  0
  -11.1820  -16.7250   -5.4000 C   0  0  0  0  0  0  0  0  0  0  0  0
   -7.4600  -18.0820   -8.6570 C   0  0  0  0  0  0  0  0  0  0  0  0
   -7.1920  -19.9530  -10.2110 C   0  0  0  0  0  0  0  0  0  0  0  0
   -8.1680  -17.3710   -5.6020 C   0  0  0  0  0  0  0  0  0  0  0  0
   -7.2420  -19.4970   -8.9360 N   0  0  0  0  0  0  0  0  0  0  0  0
  -11.2280  -15.2280   -5.1620 C   0  0  0  0  0  0  0  0  0  0  0  0
  -12.3710  -17.1350   -8.2670 C   0  0  0  0  0  0  0  0  0  0  0  0
  -10.3880  -17.8710  -10.1230 C   0  0  0  0  0  0  0  0  0  0  0  0
  -11.7780  -14.6940   -3.9490 C   0  0  0  0  0  0  0  0  0  0  0  0
   -7.3160  -19.2510  -11.1830 O   0  0  0  0  0  0  0  0  0  0  0  0
   -8.4930  -18.0120   -4.5970 O   0  0  0  0  0  0  0  0  0  0  0  0
  -11.7130  -17.7160  -10.4790 C   0  0  0  0  0  0  0  0  0  0  0  0
  -11.8080  -13.2760   -3.7650 C   0  0  0  0  0  0  0  0  0  0  0  0
   -6.9810  -21.2800  -10.2610 O   0  0  0  0  0  0  0  0  0  0  0  0
   -7.0300  -16.7600   -5.7300 O   0  0  0  0  0  0  0  0  0  0  0  0
  -12.7090  -17.3540   -9.5930 C   0  0  0  0  0  0  0  0  0  0  0  0
  -10.7500  -14.3510   -6.1180 C   0  0  0  0  0  0  0  0  0  0  0  0
   -7.0860  -20.3700   -7.7790 C   0  0  0  0  0  0  0  0  0  0  0  0
  -10.7760  -12.9740   -5.9280 C   0  0  0  0  0  0  0  0  0  0  0  0
  -12.3050  -15.5100   -2.9070 C   0  0  0  0  0  0  0  0  0  0  0  0
  -11.2860  -12.4410   -4.7830 C   0  0  0  0  0  0  0  0  0  0  0  0
  -12.3400  -12.7480   -2.5610 C   0  0  0  0  0  0  0  0  0  0  0  0
   -6.9130  -21.8550  -11.6140 C   0  0  0  0  0  0  0  0  0  0  0  0
   -6.3150  -23.1800  -11.5520 C   0  0  0  0  0  0  0  0  0  0  0  0
  -12.8250  -14.9570   -1.7690 C   0  0  0  0  0  0  0  0  0  0  0  0
  -12.8330  -13.5730   -1.5920 C   0  0  0  0  0  0  0  0  0  0  0  0
  -12.0530  -17.9420  -11.7790 F   0  0  0  0  0  0  0  0  0  0  0  0
  1  3  1  0  0  0  0
  1  5  1  0  0  0  0
  1  6  1  0  0  0  0
  2  3  2  0  0  0  0
  2  4  1  0  0  0  0
  2  7  1  0  0  0  0
  3  9  1  0  0  0  0
  4  5  2  0  0  0  0
  4 13  1  0  0  0  0
  5 12  1  0  0  0  0
  6 11  1  0  0  0  0
  7 10  1  0  0  0  0
  8 10  1  0  0  0  0
  8 15  2  0  0  0  0
  8 19  1  0  0  0  0
  9 16  1  0  0  0  0
  9 20  1  0  0  0  0
 10 23  1  0  0  0  0
 11 14  2  0  0  0  0
 11 22  1  0  0  0  0
 12 21  2  0  0  0  0
 13 17  2  0  0  0  0
 14 18  1  0  0  0  0
 14 25  1  0  0  0  0
 17 21  1  0  0  0  0
 17 32  1  0  0  0  0
 18 26  2  0  0  0  0
 18 27  1  0  0  0  0
 19 28  1  0  0  0  0
 22 24  2  0  0  0  0
 24 26  1  0  0  0  0
 25 30  2  0  0  0  0
 27 31  2  0  0  0  0
 28 29  1  0  0  0  0
 30 31  1  0  0  0  0
M  END
