7H61_A
 OpenBabel04062520543D

  4  3  0  0  0  0  0  0  0  0999 V2000
  -18.1740   -5.1940   -5.8940 O   0  0  0  0  0  0  0  0  0  0  0  0
  -18.5360   -4.2420   -8.3040 C   0  0  0  0  0  0  0  0  0  0  0  0
  -19.2430   -6.7580   -7.7090 C   0  0  0  0  0  0  0  0  0  0  0  0
  -19.2360   -5.1530   -6.9500 S   0  0  0  0  0  0  0  0  0  0  0  0
  1  4  1  0  0  0  0
  2  4  1  0  0  0  0
  3  4  1  0  0  0  0
M  END
