7H63_A
 OpenBabel04062520543D

 30 33  0  0  0  0  0  0  0  0999 V2000
   -8.6910  -16.6480   -7.3830 C   0  0  2  0  0  0  0  0  0  0  0  0
  -10.5310  -15.4000   -6.1580 C   0  0  0  0  0  0  0  0  0  0  0  0
   -7.3760  -16.3300   -7.9840 C   0  0  0  0  0  0  0  0  0  0  0  0
   -8.6250  -17.8880   -6.8380 C   0  0  1  0  0  0  0  0  0  0  0  0
   -6.5590  -17.3740   -7.7440 N   0  0  0  0  0  0  0  0  0  0  0  0
   -9.9160  -15.7590   -7.4870 C   0  0  2  0  0  0  0  0  0  0  0  0
  -10.9710  -14.1830   -5.7240 C   0  0  0  0  0  0  0  0  0  0  0  0
  -10.7850  -16.3610   -5.1990 N   0  0  0  0  0  0  0  0  0  0  0  0
  -11.5320  -14.3840   -4.4040 C   0  0  1  0  0  0  0  0  0  0  0  0
   -7.2480  -18.4520   -7.0490 C   0  0  2  0  0  0  0  0  0  0  0  0
  -11.3970  -15.7540   -4.1160 C   0  0  0  0  0  0  0  0  0  0  0  0
   -7.0820  -15.2860   -8.5740 O   0  0  0  0  0  0  0  0  0  0  0  0
  -12.1200  -13.5510   -3.4490 C   0  0  0  0  0  0  0  0  0  0  0  0
  -10.9440  -16.3370   -8.4620 C   0  0  0  0  0  0  0  0  0  0  0  0
   -9.6150  -18.5780   -6.1740 O   0  0  0  0  0  0  0  0  0  0  0  0
  -11.8400  -16.2940   -2.9140 C   0  0  0  0  0  0  0  0  0  0  0  0
  -10.8870  -12.8720   -6.4930 C   0  0  0  0  0  0  0  0  0  0  0  0
   -7.3380  -19.6930   -7.9630 C   0  0  0  0  0  0  0  0  0  0  0  0
  -12.5570  -14.1230   -2.2700 C   0  0  0  0  0  0  0  0  0  0  0  0
  -12.4300  -15.4640   -1.9760 C   0  0  0  0  0  0  0  0  0  0  0  0
  -10.5740  -16.6700   -9.7610 C   0  0  0  0  0  0  0  0  0  0  0  0
  -12.2520  -16.5970   -8.0600 C   0  0  0  0  0  0  0  0  0  0  0  0
  -12.1930  -12.5250   -7.1890 C   0  0  0  0  0  0  0  0  0  0  0  0
  -10.3660  -11.7220   -5.6480 C   0  0  0  0  0  0  0  0  0  0  0  0
   -7.6480  -19.3100   -9.4130 C   0  0  0  0  0  0  0  0  0  0  0  0
   -6.0760  -20.5380   -7.9020 C   0  0  0  0  0  0  0  0  0  0  0  0
  -11.4920  -17.2200  -10.6410 C   0  0  0  0  0  0  0  0  0  0  0  0
  -13.1690  -17.1450   -8.9420 C   0  0  0  0  0  0  0  0  0  0  0  0
  -12.7900  -17.4560  -10.2330 C   0  0  0  0  0  0  0  0  0  0  0  0
  -13.1440  -13.3160   -1.3460 F   0  0  0  0  0  0  0  0  0  0  0  0
  1  3  1  0  0  0  0
  1  4  1  0  0  0  0
  1  6  1  6  0  0  0
  2  7  2  0  0  0  0
  2  8  1  0  0  0  0
  3  5  1  0  0  0  0
  3 12  2  0  0  0  0
  4 10  1  0  0  0  0
  4 15  1  1  0  0  0
  5 10  1  0  0  0  0
  6  2  1  1  0  0  0
  6 14  1  0  0  0  0
  7  9  1  0  0  0  0
  7 17  1  0  0  0  0
  8 11  2  0  0  0  0
  9 11  1  0  0  0  0
  9 13  1  1  0  0  0
 10 18  1  6  0  0  0
 11 16  1  0  0  0  0
 13 19  2  0  0  0  0
 14 21  2  0  0  0  0
 14 22  1  0  0  0  0
 16 20  2  0  0  0  0
 17 23  1  0  0  0  0
 17 24  1  0  0  0  0
 18 25  1  0  0  0  0
 18 26  1  0  0  0  0
 19 20  1  0  0  0  0
 19 30  1  0  0  0  0
 21 27  1  0  0  0  0
 22 28  2  0  0  0  0
 27 29  2  0  0  0  0
 28 29  1  0  0  0  0
M  END
