7H64_A
 OpenBabel04062520543D

 30 33  0  0  0  0  0  0  0  0999 V2000
  -10.6060  -16.8770   -6.6770 N   0  0  0  0  0  0  0  0  0  0  0  0
   -8.9950  -17.1460   -8.2410 C   0  0  0  0  0  0  0  0  0  0  0  0
   -9.2300  -16.9080   -6.9080 C   0  0  0  0  0  0  0  0  0  0  0  0
  -10.2720  -17.2390   -8.8880 C   0  0  0  0  0  0  0  0  0  0  0  0
  -11.2500  -17.0460   -7.9050 C   0  0  0  0  0  0  0  0  0  0  0  0
  -11.2870  -16.5780   -5.4200 C   0  0  0  0  0  0  0  0  0  0  0  0
   -8.2230  -16.7870   -5.8230 C   0  0  0  0  0  0  0  0  0  0  0  0
   -7.6580  -17.2910   -8.9140 C   0  0  0  0  0  0  0  0  0  0  0  0
  -11.3840  -15.0940   -5.1300 C   0  0  0  0  0  0  0  0  0  0  0  0
   -7.2340  -19.6350   -8.6470 C   0  0  0  0  0  0  0  0  0  0  0  0
  -12.6050  -17.0720   -8.2140 C   0  0  0  0  0  0  0  0  0  0  0  0
   -7.4760  -18.6090   -9.4700 N   0  0  0  0  0  0  0  0  0  0  0  0
  -10.6650  -17.4620  -10.2060 C   0  0  0  0  0  0  0  0  0  0  0  0
  -11.9370  -14.6240   -3.8960 C   0  0  0  0  0  0  0  0  0  0  0  0
   -7.1600  -19.5450   -7.4390 O   0  0  0  0  0  0  0  0  0  0  0  0
   -7.2210  -16.0920   -5.8530 O   0  0  0  0  0  0  0  0  0  0  0  0
  -12.0140  -17.4850  -10.4810 C   0  0  0  0  0  0  0  0  0  0  0  0
  -11.9920  -13.2200   -3.6520 C   0  0  0  0  0  0  0  0  0  0  0  0
   -8.4940  -17.5880   -4.8350 O   0  0  0  0  0  0  0  0  0  0  0  0
  -12.9920  -17.2930   -9.5280 C   0  0  0  0  0  0  0  0  0  0  0  0
   -7.0870  -20.7710   -9.3360 O   0  0  0  0  0  0  0  0  0  0  0  0
  -10.9250  -14.1750   -6.0480 C   0  0  0  0  0  0  0  0  0  0  0  0
  -10.9920  -12.8100   -5.8100 C   0  0  0  0  0  0  0  0  0  0  0  0
  -12.4340  -15.4930   -2.8880 C   0  0  0  0  0  0  0  0  0  0  0  0
  -11.5120  -12.3320   -4.6460 C   0  0  0  0  0  0  0  0  0  0  0  0
  -12.5530  -12.7550   -2.4390 C   0  0  0  0  0  0  0  0  0  0  0  0
   -6.8200  -21.9570   -8.5510 C   0  0  0  0  0  0  0  0  0  0  0  0
  -12.9590  -15.0000   -1.7260 C   0  0  0  0  0  0  0  0  0  0  0  0
  -13.0150  -13.6330   -1.5020 C   0  0  0  0  0  0  0  0  0  0  0  0
  -12.3990  -17.7100  -11.7690 F   0  0  0  0  0  0  0  0  0  0  0  0
  1  3  1  0  0  0  0
  1  5  1  0  0  0  0
  1  6  1  0  0  0  0
  2  3  2  0  0  0  0
  2  4  1  0  0  0  0
  2  8  1  0  0  0  0
  3  7  1  0  0  0  0
  4  5  2  0  0  0  0
  4 13  1  0  0  0  0
  5 11  1  0  0  0  0
  6  9  1  0  0  0  0
  7 16  1  0  0  0  0
  7 19  2  0  0  0  0
  8 12  1  0  0  0  0
  9 14  2  0  0  0  0
  9 22  1  0  0  0  0
 10 12  1  0  0  0  0
 10 15  2  0  0  0  0
 10 21  1  0  0  0  0
 11 20  2  0  0  0  0
 13 17  2  0  0  0  0
 14 18  1  0  0  0  0
 14 24  1  0  0  0  0
 17 20  1  0  0  0  0
 17 30  1  0  0  0  0
 18 25  2  0  0  0  0
 18 26  1  0  0  0  0
 21 27  1  0  0  0  0
 22 23  2  0  0  0  0
 23 25  1  0  0  0  0
 24 28  2  0  0  0  0
 26 29  2  0  0  0  0
 28 29  1  0  0  0  0
M  END
