7H64_A
 OpenBabel04062513013D

  4  3  0  0  0  0  0  0  0  0999 V2000
  -18.0750   -5.3350   -5.7780 O   0  0  0  0  0  0  0  0  0  0  0  0
  -18.3990   -4.1380   -8.0980 C   0  0  0  0  0  0  0  0  0  0  0  0
  -19.0700   -6.7130   -7.7800 C   0  0  0  0  0  0  0  0  0  0  0  0
  -19.1090   -5.1950   -6.8580 S   0  0  0  0  0  0  0  0  0  0  0  0
  1  4  1  0  0  0  0
  2  4  1  0  0  0  0
  3  4  1  0  0  0  0
M  END
