7H65_A
 OpenBabel04062520543D

 39 43  0  0  0  0  0  0  0  0999 V2000
   -8.7300  -16.7100   -7.8250 C   0  0  2  0  0  0  0  0  0  0  0  0
  -10.4760  -15.2370   -6.7430 C   0  0  0  0  0  0  0  0  0  0  0  0
   -7.4510  -16.8260   -8.2900 C   0  0  0  0  0  0  0  0  0  0  0  0
   -7.1320  -18.1310   -7.5730 C   0  0  1  0  0  0  0  0  0  0  0  0
   -8.5910  -17.9620   -7.0620 C   0  0  0  0  0  0  0  0  0  0  0  0
  -10.6900  -13.9430   -6.3620 C   0  0  0  0  0  0  0  0  0  0  0  0
  -10.8730  -16.0960   -5.7350 N   0  0  0  0  0  0  0  0  0  0  0  0
   -9.8940  -15.7560   -8.0360 C   0  0  2  0  0  0  0  0  0  0  0  0
  -11.3560  -15.3390   -4.6770 C   0  0  0  0  0  0  0  0  0  0  0  0
  -11.2550  -13.9830   -5.0360 C   0  0  2  0  0  0  0  0  0  0  0  0
  -10.3860  -12.6860   -7.1390 C   0  0  0  0  0  0  0  0  0  0  0  0
   -6.9890  -19.3670   -8.4850 C   0  0  0  0  0  0  0  0  0  0  0  0
  -11.6910  -13.0270   -4.1210 C   0  0  0  0  0  0  0  0  0  0  0  0
  -11.4410  -12.1970   -8.1520 C   0  0  0  0  0  0  0  0  0  0  0  0
  -11.2600  -12.8190   -9.4840 N   0  0  0  0  0  0  0  0  0  0  0  0
   -9.3120  -18.6240   -6.3350 O   0  0  0  0  0  0  0  0  0  0  0  0
  -10.1890  -12.6700  -10.2900 C   0  0  0  0  0  0  0  0  0  0  0  0
  -11.8790  -15.7340   -3.4490 C   0  0  0  0  0  0  0  0  0  0  0  0
  -10.9410  -16.3420   -8.9890 C   0  0  0  0  0  0  0  0  0  0  0  0
   -6.6330  -16.1860   -9.0650 O   0  0  0  0  0  0  0  0  0  0  0  0
   -9.1750  -12.0710   -9.9320 O   0  0  0  0  0  0  0  0  0  0  0  0
   -7.3800  -19.3130   -9.8190 C   0  0  0  0  0  0  0  0  0  0  0  0
   -6.4910  -20.5750   -8.0010 C   0  0  0  0  0  0  0  0  0  0  0  0
   -6.0260  -18.0220   -6.4940 C   0  0  0  0  0  0  0  0  0  0  0  0
  -12.2100  -13.4230   -2.8960 C   0  0  0  0  0  0  0  0  0  0  0  0
  -12.3210  -14.7730   -2.5460 C   0  0  0  0  0  0  0  0  0  0  0  0
   -7.2820  -20.4240  -10.6380 C   0  0  0  0  0  0  0  0  0  0  0  0
   -6.3830  -21.6810   -8.8310 C   0  0  0  0  0  0  0  0  0  0  0  0
   -6.7820  -21.6240  -10.1640 C   0  0  0  0  0  0  0  0  0  0  0  0
  -12.8510  -12.5490   -7.6750 C   0  0  0  0  0  0  0  0  0  0  0  0
  -11.3290  -10.6850   -8.3120 C   0  0  0  0  0  0  0  0  0  0  0  0
  -10.3140  -13.2730  -11.6620 C   0  0  0  0  0  0  0  0  0  0  0  0
  -12.2490  -16.5730   -8.5750 C   0  0  0  0  0  0  0  0  0  0  0  0
  -10.5830  -16.6970  -10.2870 C   0  0  0  0  0  0  0  0  0  0  0  0
  -12.9010  -15.1790   -1.2140 C   0  0  0  0  0  0  0  0  0  0  0  0
   -6.6540  -22.8230  -11.0760 C   0  0  0  0  0  0  0  0  0  0  0  0
  -13.1780  -17.1280   -9.4430 C   0  0  0  0  0  0  0  0  0  0  0  0
  -11.5160  -17.2480  -11.1520 C   0  0  0  0  0  0  0  0  0  0  0  0
  -12.8150  -17.4600  -10.7330 C   0  0  0  0  0  0  0  0  0  0  0  0
  1  3  1  0  0  0  0
  1  5  1  0  0  0  0
  1  8  1  6  0  0  0
  2  6  2  0  0  0  0
  2  7  1  0  0  0  0
  3  4  1  0  0  0  0
  3 20  2  0  0  0  0
  4  5  1  0  0  0  0
  4 12  1  0  0  0  0
  4 24  1  1  0  0  0
  5 16  2  0  0  0  0
  6 10  1  0  0  0  0
  6 11  1  0  0  0  0
  7  9  2  0  0  0  0
  8  2  1  1  0  0  0
  8 19  1  0  0  0  0
  9 10  1  0  0  0  0
  9 18  1  0  0  0  0
 10 13  1  6  0  0  0
 11 14  1  0  0  0  0
 12 22  2  0  0  0  0
 12 23  1  0  0  0  0
 13 25  2  0  0  0  0
 14 15  1  0  0  0  0
 14 30  1  0  0  0  0
 14 31  1  0  0  0  0
 15 17  1  0  0  0  0
 17 21  2  0  0  0  0
 17 32  1  0  0  0  0
 18 26  2  0  0  0  0
 19 33  2  0  0  0  0
 19 34  1  0  0  0  0
 22 27  1  0  0  0  0
 23 28  2  0  0  0  0
 25 26  1  0  0  0  0
 26 35  1  0  0  0  0
 27 29  2  0  0  0  0
 28 29  1  0  0  0  0
 29 36  1  0  0  0  0
 33 37  1  0  0  0  0
 34 38  2  0  0  0  0
 37 39  2  0  0  0  0
 38 39  1  0  0  0  0
M  END
