7H65_A
 OpenBabel04062520543D

  4  3  0  0  0  0  0  0  0  0999 V2000
  -17.8470   -5.2290   -6.0170 O   0  0  0  0  0  0  0  0  0  0  0  0
  -18.5430   -4.1470   -8.3030 C   0  0  0  0  0  0  0  0  0  0  0  0
  -18.9440   -6.7620   -7.8360 C   0  0  0  0  0  0  0  0  0  0  0  0
  -19.0140   -5.2210   -6.9670 S   0  0  0  0  0  0  0  0  0  0  0  0
  1  4  1  0  0  0  0
  2  4  1  0  0  0  0
  3  4  1  0  0  0  0
M  END
