7H66_A
 OpenBabel04062513013D

 30 34  0  0  0  0  0  0  0  0999 V2000
   -9.1530  -16.7090   -7.3310 C   0  0  2  0  0  0  0  0  0  0  0  0
  -10.8820  -15.1700   -6.2440 C   0  0  0  0  0  0  0  0  0  0  0  0
   -7.8910  -16.7280   -7.8180 C   0  0  1  0  0  0  0  0  0  0  0  0
   -7.4510  -18.0050   -7.1560 C   0  0  1  0  0  0  0  0  0  0  0  0
   -8.8870  -17.9390   -6.6250 C   0  0  0  0  0  0  0  0  0  0  0  0
  -11.2630  -15.9140   -5.1470 C   0  0  0  0  0  0  0  0  0  0  0  0
  -10.3390  -15.7810   -7.5290 C   0  0  2  0  0  0  0  0  0  0  0  0
  -11.4740  -13.1180   -5.0640 C   0  0  0  0  0  0  0  0  0  0  0  0
  -11.8970  -13.8710   -3.9270 C   0  0  0  0  0  0  0  0  0  0  0  0
  -11.7920  -15.2770   -3.9900 C   0  0  0  0  0  0  0  0  0  0  0  0
   -9.5470  -18.6900   -5.9270 O   0  0  0  0  0  0  0  0  0  0  0  0
   -7.2700  -19.2210   -8.0420 C   0  0  0  0  0  0  0  0  0  0  0  0
  -12.4130  -13.2590   -2.7330 C   0  0  0  0  0  0  0  0  0  0  0  0
  -11.3400  -16.4180   -8.4750 C   0  0  0  0  0  0  0  0  0  0  0  0
   -7.2030  -15.9110   -8.6300 O   0  0  0  0  0  0  0  0  0  0  0  0
  -12.2000  -16.0450   -2.8660 C   0  0  0  0  0  0  0  0  0  0  0  0
   -6.2730  -17.7500   -6.1770 C   0  0  0  0  0  0  0  0  0  0  0  0
  -12.8270  -14.0240   -1.6600 C   0  0  0  0  0  0  0  0  0  0  0  0
  -11.0220  -13.7540   -6.1960 C   0  0  0  0  0  0  0  0  0  0  0  0
  -12.6990  -15.4390   -1.7350 C   0  0  0  0  0  0  0  0  0  0  0  0
   -7.7600  -19.2290   -9.3520 C   0  0  0  0  0  0  0  0  0  0  0  0
   -6.6630  -20.3700   -7.5370 C   0  0  0  0  0  0  0  0  0  0  0  0
  -10.9830  -16.5740   -9.8260 C   0  0  0  0  0  0  0  0  0  0  0  0
  -12.5880  -16.8730   -8.0380 C   0  0  0  0  0  0  0  0  0  0  0  0
  -11.8980  -17.1840  -10.6870 C   0  0  0  0  0  0  0  0  0  0  0  0
   -6.5280  -21.5030   -8.3450 C   0  0  0  0  0  0  0  0  0  0  0  0
   -7.6210  -20.3520  -10.1630 C   0  0  0  0  0  0  0  0  0  0  0  0
  -13.4960  -17.4570   -8.9270 C   0  0  0  0  0  0  0  0  0  0  0  0
  -13.1550  -17.6220  -10.2760 C   0  0  0  0  0  0  0  0  0  0  0  0
   -6.9880  -21.4900   -9.6570 C   0  0  0  0  0  0  0  0  0  0  0  0
  1  3  1  0  0  0  0
  1  5  1  0  0  0  0
  1  7  1  6  0  0  0
  2  6  2  0  0  0  0
  2 19  1  0  0  0  0
  3  4  1  6  0  0  0
  3 15  1  0  0  0  0
  4  5  1  0  0  0  0
  4 12  1  0  0  0  0
  4 17  1  1  0  0  0
  5 11  2  0  0  0  0
  6 10  1  0  0  0  0
  7  2  1  1  0  0  0
  7 14  1  0  0  0  0
  8  9  1  0  0  0  0
  8 19  2  0  0  0  0
  9 10  2  0  0  0  0
  9 13  1  0  0  0  0
 10 16  1  0  0  0  0
 12 21  2  0  0  0  0
 12 22  1  0  0  0  0
 13 18  2  0  0  0  0
 14 23  2  0  0  0  0
 14 24  1  0  0  0  0
 16 20  2  0  0  0  0
 18 20  1  0  0  0  0
 21 27  1  0  0  0  0
 22 26  2  0  0  0  0
 23 25  1  0  0  0  0
 24 28  2  0  0  0  0
 25 29  2  0  0  0  0
 26 30  1  0  0  0  0
 27 30  2  0  0  0  0
 28 29  1  0  0  0  0
M  END
