7H67_A
 OpenBabel04062520543D

 31 35  0  0  0  0  0  0  0  0999 V2000
   -9.0680  -16.6020   -6.9390 C   0  0  2  0  0  0  0  0  0  0  0  0
  -10.8470  -15.2830   -5.6140 C   0  0  0  0  0  0  0  0  0  0  0  0
   -7.8280  -16.5730   -7.4880 C   0  0  1  0  0  0  0  0  0  0  0  0
   -7.4110  -17.9640   -7.0360 C   0  0  1  0  0  0  0  0  0  0  0  0
   -8.8180  -17.9400   -6.4270 C   0  0  0  0  0  0  0  0  0  0  0  0
  -11.3000  -16.5450   -4.4950 S   0  0  0  0  0  0  0  0  0  0  0  0
  -10.2360  -15.6280   -6.9490 C   0  0  2  0  0  0  0  0  0  0  0  0
  -11.1070  -14.0360   -5.0970 C   0  0  0  0  0  0  0  0  0  0  0  0
  -11.6960  -14.0720   -3.7940 C   0  0  0  0  0  0  0  0  0  0  0  0
  -11.8770  -15.3820   -3.3530 C   0  0  0  0  0  0  0  0  0  0  0  0
   -9.4570  -18.7800   -5.7930 O   0  0  0  0  0  0  0  0  0  0  0  0
   -7.2990  -19.0580   -8.0740 C   0  0  0  0  0  0  0  0  0  0  0  0
  -12.0920  -12.9830   -2.9550 C   0  0  0  0  0  0  0  0  0  0  0  0
  -11.2030  -16.1620   -8.0070 C   0  0  0  0  0  0  0  0  0  0  0  0
   -7.1670  -15.6380   -8.2070 O   0  0  0  0  0  0  0  0  0  0  0  0
  -12.4680  -15.6750   -2.1030 C   0  0  0  0  0  0  0  0  0  0  0  0
   -6.2220  -17.9920   -6.0500 C   0  0  0  0  0  0  0  0  0  0  0  0
  -12.6700  -13.2870   -1.7240 C   0  0  0  0  0  0  0  0  0  0  0  0
  -10.8260  -12.6780   -5.7380 C   0  0  0  0  0  0  0  0  0  0  0  0
  -12.8580  -14.6220   -1.2960 C   0  0  0  0  0  0  0  0  0  0  0  0
   -7.7170  -18.8370   -9.3960 C   0  0  0  0  0  0  0  0  0  0  0  0
   -6.8130  -20.3180   -7.6970 C   0  0  0  0  0  0  0  0  0  0  0  0
  -10.7930  -16.1170   -9.3570 C   0  0  0  0  0  0  0  0  0  0  0  0
  -12.4320  -16.7770   -7.7300 C   0  0  0  0  0  0  0  0  0  0  0  0
  -13.0950  -12.1740   -0.8210 C   0  0  0  0  0  0  0  0  0  0  0  0
  -11.6020  -16.6060  -10.3970 C   0  0  0  0  0  0  0  0  0  0  0  0
   -6.7220  -21.3580   -8.6240 C   0  0  0  0  0  0  0  0  0  0  0  0
   -7.6270  -19.8680  -10.3310 C   0  0  0  0  0  0  0  0  0  0  0  0
  -13.2370  -17.2640   -8.7660 C   0  0  0  0  0  0  0  0  0  0  0  0
  -12.8360  -17.1890  -10.1060 C   0  0  0  0  0  0  0  0  0  0  0  0
   -7.1300  -21.1160   -9.9380 C   0  0  0  0  0  0  0  0  0  0  0  0
  1  3  1  0  0  0  0
  1  5  1  0  0  0  0
  1  7  1  6  0  0  0
  2  6  1  0  0  0  0
  2  8  2  0  0  0  0
  3  4  1  0  0  0  0
  3 15  1  6  0  0  0
  4  5  1  0  0  0  0
  4 12  1  0  0  0  0
  4 17  1  1  0  0  0
  5 11  2  0  0  0  0
  6 10  1  0  0  0  0
  7  2  1  1  0  0  0
  7 14  1  0  0  0  0
  8  9  1  0  0  0  0
  8 19  1  0  0  0  0
  9 10  2  0  0  0  0
  9 13  1  0  0  0  0
 10 16  1  0  0  0  0
 12 21  2  0  0  0  0
 12 22  1  0  0  0  0
 13 18  2  0  0  0  0
 14 23  2  0  0  0  0
 14 24  1  0  0  0  0
 16 20  2  0  0  0  0
 18 20  1  0  0  0  0
 18 25  1  0  0  0  0
 21 28  1  0  0  0  0
 22 27  2  0  0  0  0
 23 26  1  0  0  0  0
 24 29  2  0  0  0  0
 26 30  2  0  0  0  0
 27 31  1  0  0  0  0
 28 31  2  0  0  0  0
 29 30  1  0  0  0  0
M  END
