7H68_A
 OpenBabel04062520543D

 32 36  0  0  0  0  0  0  0  0999 V2000
   -8.5110  -16.5840   -6.8170 C   0  0  2  0  0  0  0  0  0  0  0  0
  -10.4970  -15.5070   -5.7350 C   0  0  0  0  0  0  0  0  0  0  0  0
   -7.2130  -16.0050   -6.9920 C   0  0  0  0  0  0  0  0  0  0  0  0
   -9.7900  -15.7990   -7.0430 C   0  0  2  0  0  0  0  0  0  0  0  0
  -10.8190  -16.4810   -4.8200 N   0  0  0  0  0  0  0  0  0  0  0  0
  -10.9320  -14.3060   -5.2700 C   0  0  0  0  0  0  0  0  0  0  0  0
   -8.3360  -17.8650   -6.4010 C   0  0  1  0  0  0  0  0  0  0  0  0
   -6.2470  -16.8980   -6.7020 O   0  0  0  0  0  0  0  0  0  0  0  0
  -11.5810  -14.5600   -3.9830 C   0  0  0  0  0  0  0  0  0  0  0  0
   -6.8620  -18.1400   -6.3100 C   0  0  2  0  0  0  0  0  0  0  0  0
  -11.4750  -15.9350   -3.7250 C   0  0  1  0  0  0  0  0  0  0  0  0
   -6.9460  -14.9250   -7.4920 O   0  0  0  0  0  0  0  0  0  0  0  0
  -12.1940  -13.7400   -3.0450 C   0  0  0  0  0  0  0  0  0  0  0  0
   -6.3940  -19.3130   -7.1940 C   0  0  0  0  0  0  0  0  0  0  0  0
  -10.7270  -16.4360   -8.0650 C   0  0  0  0  0  0  0  0  0  0  0  0
  -12.0020  -16.5080   -2.5780 C   0  0  0  0  0  0  0  0  0  0  0  0
   -9.2650  -18.7640   -6.1090 O   0  0  0  0  0  0  0  0  0  0  0  0
  -12.7260  -14.3190   -1.9150 C   0  0  0  0  0  0  0  0  0  0  0  0
  -10.8150  -12.9380   -5.9270 C   0  0  0  0  0  0  0  0  0  0  0  0
  -12.6340  -15.6900   -1.6570 C   0  0  0  0  0  0  0  0  0  0  0  0
   -6.8130  -19.1280   -8.6430 C   0  0  0  0  0  0  0  0  0  0  0  0
  -10.1840  -16.8710   -9.2710 C   0  0  0  0  0  0  0  0  0  0  0  0
  -12.1020  -16.5700   -7.8560 C   0  0  0  0  0  0  0  0  0  0  0  0
   -6.2510  -18.1080   -9.4160 C   0  0  0  0  0  0  0  0  0  0  0  0
   -7.7450  -19.9740   -9.2210 C   0  0  0  0  0  0  0  0  0  0  0  0
  -12.9170  -17.1290   -8.8390 C   0  0  0  0  0  0  0  0  0  0  0  0
  -11.0040  -17.3900  -10.2570 C   0  0  0  0  0  0  0  0  0  0  0  0
   -8.1130  -19.8150  -10.5520 C   0  0  0  0  0  0  0  0  0  0  0  0
   -6.6320  -17.9350  -10.7380 C   0  0  0  0  0  0  0  0  0  0  0  0
   -7.5600  -18.7940  -11.3020 C   0  0  0  0  0  0  0  0  0  0  0  0
  -12.3640  -17.5290  -10.0420 C   0  0  0  0  0  0  0  0  0  0  0  0
  -13.3510  -13.5220   -1.0260 F   0  0  0  0  0  0  0  0  0  0  0  0
  1  3  1  0  0  0  0
  1  4  1  1  0  0  0
  1  7  1  0  0  0  0
  2  5  2  0  0  0  0
  2  6  1  0  0  0  0
  3  8  1  0  0  0  0
  3 12  2  0  0  0  0
  4  2  1  1  0  0  0
  4 15  1  0  0  0  0
  5 11  1  0  0  0  0
  6  9  2  0  0  0  0
  6 19  1  0  0  0  0
  7 10  1  0  0  0  0
  7 17  1  1  0  0  0
  8 10  1  0  0  0  0
  9 11  1  0  0  0  0
  9 13  1  0  0  0  0
 10 14  1  6  0  0  0
 11 16  1  6  0  0  0
 13 18  2  0  0  0  0
 14 21  1  0  0  0  0
 15 22  2  0  0  0  0
 15 23  1  0  0  0  0
 16 20  2  0  0  0  0
 18 20  1  0  0  0  0
 18 32  1  0  0  0  0
 21 24  2  0  0  0  0
 21 25  1  0  0  0  0
 22 27  1  0  0  0  0
 23 26  2  0  0  0  0
 24 29  1  0  0  0  0
 25 28  2  0  0  0  0
 26 31  1  0  0  0  0
 27 31  2  0  0  0  0
 28 30  1  0  0  0  0
 29 30  2  0  0  0  0
M  END
