7H68_A
 OpenBabel04062520543D

 14 13  0  0  0  0  0  0  0  0999 V2000
    2.9610  -30.9650    0.1200 C   0  0  0  0  0  0  0  0  0  0  0  0
    2.4900  -31.5570   -1.0890 O   0  0  0  0  0  0  0  0  0  0  0  0
    3.5530  -29.6050   -0.1830 C   0  0  0  0  0  0  0  0  0  0  0  0
    4.0730  -29.0110    0.9950 O   0  0  0  0  0  0  0  0  0  0  0  0
    2.4940  -28.6420   -0.6660 C   0  0  0  0  0  0  0  0  0  0  0  0
    3.1960  -27.5360   -1.2380 O   0  0  0  0  0  0  0  0  0  0  0  0
    2.1280  -32.4280   -0.8880 H   0  0  0  0  0  0  0  0  0  0  0  0
    4.4690  -28.1500    0.7890 H   0  0  0  0  0  0  0  0  0  0  0  0
    3.9640  -27.3060   -0.6870 H   0  0  0  0  0  0  0  0  0  0  0  0
    4.3360  -29.7050   -0.9480 H   0  0  0  0  0  0  0  0  0  0  0  0
    2.1490  -30.8580    0.8380 H   0  0  0  0  0  0  0  0  0  0  0  0
    3.7230  -31.6110    0.5580 H   0  0  0  0  0  0  0  0  0  0  0  0
    1.8370  -29.1120   -1.3910 H   0  0  0  0  0  0  0  0  0  0  0  0
    1.8840  -28.3030    0.1680 H   0  0  0  0  0  0  0  0  0  0  0  0
  1  2  1  0  0  0  0
  1  3  1  0  0  0  0
  1 11  1  0  0  0  0
  1 12  1  0  0  0  0
  2  7  1  0  0  0  0
  3  4  1  0  0  0  0
  3  5  1  0  0  0  0
  3 10  1  0  0  0  0
  4  8  1  0  0  0  0
  5  6  1  0  0  0  0
  5 13  1  0  0  0  0
  5 14  1  0  0  0  0
  6  9  1  0  0  0  0
M  END
