7H69_A
 OpenBabel04062520543D

 24 27  0  0  0  0  0  0  0  0999 V2000
  -10.5660  -17.1880   -6.6160 N   0  0  0  0  0  0  0  0  0  0  0  0
   -9.2190  -17.4360   -6.8630 C   0  0  0  0  0  0  0  0  0  0  0  0
   -9.0350  -17.6420   -8.2010 C   0  0  0  0  0  0  0  0  0  0  0  0
  -11.2420  -17.1680   -7.8420 C   0  0  0  0  0  0  0  0  0  0  0  0
  -11.1770  -16.8270   -5.3510 C   0  0  0  0  0  0  0  0  0  0  0  0
  -10.3060  -17.4570   -8.8490 C   0  0  0  0  0  0  0  0  0  0  0  0
   -8.2220  -17.5800   -5.7960 C   0  0  0  0  0  0  0  0  0  0  0  0
  -11.2310  -15.3280   -5.1350 C   0  0  0  0  0  0  0  0  0  0  0  0
  -11.7810  -14.8100   -3.9360 C   0  0  0  0  0  0  0  0  0  0  0  0
  -12.2780  -15.6510   -2.9100 C   0  0  0  0  0  0  0  0  0  0  0  0
   -7.0810  -17.2120   -5.8780 O   0  0  0  0  0  0  0  0  0  0  0  0
  -11.8400  -13.3990   -3.7520 C   0  0  0  0  0  0  0  0  0  0  0  0
  -12.3970  -12.8930   -2.5550 C   0  0  0  0  0  0  0  0  0  0  0  0
  -12.8070  -15.0880   -1.8010 C   0  0  0  0  0  0  0  0  0  0  0  0
   -8.6560  -18.3380   -4.8100 O   0  0  0  0  0  0  0  0  0  0  0  0
  -12.8780  -13.7300   -1.5960 C   0  0  0  0  0  0  0  0  0  0  0  0
  -12.5850  -16.9750   -8.1270 C   0  0  0  0  0  0  0  0  0  0  0  0
  -10.7810  -14.4540   -6.1000 C   0  0  0  0  0  0  0  0  0  0  0  0
  -10.7530  -17.5300  -10.1720 C   0  0  0  0  0  0  0  0  0  0  0  0
  -10.8130  -13.0800   -5.9090 C   0  0  0  0  0  0  0  0  0  0  0  0
  -11.3310  -12.5550   -4.7640 C   0  0  0  0  0  0  0  0  0  0  0  0
  -13.0020  -17.0530   -9.4460 C   0  0  0  0  0  0  0  0  0  0  0  0
  -12.0900  -17.3330  -10.4640 C   0  0  0  0  0  0  0  0  0  0  0  0
  -13.3050  -15.9100   -0.8410 F   0  0  0  0  0  0  0  0  0  0  0  0
  1  2  1  0  0  0  0
  1  4  1  0  0  0  0
  1  5  1  0  0  0  0
  2  3  2  0  0  0  0
  2  7  1  0  0  0  0
  3  6  1  0  0  0  0
  4  6  2  0  0  0  0
  4 17  1  0  0  0  0
  5  8  1  0  0  0  0
  6 19  1  0  0  0  0
  7 11  1  0  0  0  0
  7 15  2  0  0  0  0
  8  9  2  0  0  0  0
  8 18  1  0  0  0  0
  9 10  1  0  0  0  0
  9 12  1  0  0  0  0
 10 14  2  0  0  0  0
 12 13  1  0  0  0  0
 12 21  2  0  0  0  0
 13 16  2  0  0  0  0
 14 16  1  0  0  0  0
 14 24  1  0  0  0  0
 17 22  2  0  0  0  0
 18 20  2  0  0  0  0
 19 23  2  0  0  0  0
 20 21  1  0  0  0  0
 22 23  1  0  0  0  0
M  END
