7H69_A
 OpenBabel04062513013D

  4  3  0  0  0  0  0  0  0  0999 V2000
  -17.8460   -5.5450   -5.8530 O   0  0  0  0  0  0  0  0  0  0  0  0
  -18.1710   -4.3050   -8.1580 C   0  0  0  0  0  0  0  0  0  0  0  0
  -18.8130   -6.9220   -7.8550 C   0  0  0  0  0  0  0  0  0  0  0  0
  -18.8740   -5.4040   -6.9390 S   0  0  0  0  0  0  0  0  0  0  0  0
  1  4  1  0  0  0  0
  2  4  1  0  0  0  0
  3  4  1  0  0  0  0
M  END
