7H6A_A
 OpenBabel04062520543D

  4  3  0  0  0  0  0  0  0  0999 V2000
  -17.9130   -5.5580   -6.0230 O   0  0  0  0  0  0  0  0  0  0  0  0
  -18.2660   -4.2320   -8.3150 C   0  0  0  0  0  0  0  0  0  0  0  0
  -19.0470   -6.8070   -8.0150 C   0  0  0  0  0  0  0  0  0  0  0  0
  -18.9670   -5.3060   -7.0600 S   0  0  0  0  0  0  0  0  0  0  0  0
  1  4  1  0  0  0  0
  2  4  1  0  0  0  0
  3  4  1  0  0  0  0
M  END
