7H6A_A
 OpenBabel04062513013D

  4  3  0  0  0  0  0  0  0  0999 V2000
  -17.4220  -13.4350  -12.5950 O   0  0  0  0  0  0  0  0  0  0  0  0
  -19.2840  -13.3600  -10.7980 C   0  0  0  0  0  0  0  0  0  0  0  0
  -16.9160  -12.1770  -10.3800 C   0  0  0  0  0  0  0  0  0  0  0  0
  -18.0720  -12.4350  -11.6960 S   0  0  0  0  0  0  0  0  0  0  0  0
  1  4  1  0  0  0  0
  2  4  1  0  0  0  0
  3  4  1  0  0  0  0
M  END
