7H6B_A
 OpenBabel04062520543D

 29 31  0  0  0  0  0  0  0  0999 V2000
  -10.0800  -13.7490   -6.8060 S   0  0  0  0  0  0  0  0  0  0  0  0
   -8.8320  -14.4330   -6.6790 O   0  0  0  0  0  0  0  0  0  0  0  0
  -10.1090  -12.3860   -7.2250 O   0  0  0  0  0  0  0  0  0  0  0  0
  -10.8940  -13.8510   -5.2560 C   0  0  0  0  0  0  0  0  0  0  0  0
  -11.2930  -14.9770   -4.5880 C   0  0  0  0  0  0  0  0  0  0  0  0
  -11.9370  -14.6720   -3.3320 C   0  0  0  0  0  0  0  0  0  0  0  0
  -11.9900  -13.2850   -3.1160 C   0  0  0  0  0  0  0  0  0  0  0  0
  -11.2690  -12.3940   -4.4220 S   0  0  0  0  0  0  0  0  0  0  0  0
  -12.5700  -12.7570   -1.9650 C   0  0  0  0  0  0  0  0  0  0  0  0
  -13.1040  -13.6120   -1.0170 C   0  0  0  0  0  0  0  0  0  0  0  0
  -13.0430  -14.9650   -1.2460 C   0  0  0  0  0  0  0  0  0  0  0  0
  -12.4780  -15.5240   -2.3690 C   0  0  0  0  0  0  0  0  0  0  0  0
  -11.0860  -16.3730   -5.1000 C   0  0  0  0  0  0  0  0  0  0  0  0
  -10.9890  -14.6110   -7.8480 N   0  0  0  0  0  0  0  0  0  0  0  0
  -12.2910  -14.2760   -8.3190 C   0  0  0  0  0  0  0  0  0  0  0  0
  -12.9640  -15.1170   -9.2210 C   0  0  0  0  0  0  0  0  0  0  0  0
  -12.2240  -16.6190   -9.8040 S   0  0  0  0  0  0  0  0  0  0  0  0
  -10.9120  -16.3140  -10.2980 O   0  0  0  0  0  0  0  0  0  0  0  0
  -13.1480  -17.2630  -10.6960 O   0  0  0  0  0  0  0  0  0  0  0  0
  -12.0590  -17.6120   -8.3680 C   0  0  0  0  0  0  0  0  0  0  0  0
  -14.2310  -14.8030   -9.6880 C   0  0  0  0  0  0  0  0  0  0  0  0
  -14.8590  -13.6360   -9.2650 C   0  0  0  0  0  0  0  0  0  0  0  0
  -16.2190  -13.2950   -9.7600 C   0  0  0  0  0  0  0  0  0  0  0  0
  -16.7450  -12.2210   -9.6160 O   0  0  0  0  0  0  0  0  0  0  0  0
  -16.8000  -14.3170  -10.3860 O   0  0  0  0  0  0  0  0  0  0  0  0
  -18.1340  -14.0690  -10.8910 C   0  0  0  0  0  0  0  0  0  0  0  0
  -14.2020  -12.7980   -8.3700 C   0  0  0  0  0  0  0  0  0  0  0  0
  -12.9360  -13.1120   -7.9030 C   0  0  0  0  0  0  0  0  0  0  0  0
  -13.5670  -15.8020   -0.3130 F   0  0  0  0  0  0  0  0  0  0  0  0
  1  2  2  0  0  0  0
  1  3  2  0  0  0  0
  1  4  1  0  0  0  0
  1 14  1  0  0  0  0
  4  5  2  0  0  0  0
  4  8  1  0  0  0  0
  5  6  1  0  0  0  0
  5 13  1  0  0  0  0
  6  7  2  0  0  0  0
  6 12  1  0  0  0  0
  7  8  1  0  0  0  0
  7  9  1  0  0  0  0
  9 10  2  0  0  0  0
 10 11  1  0  0  0  0
 11 12  2  0  0  0  0
 11 29  1  0  0  0  0
 14 15  1  0  0  0  0
 15 16  2  0  0  0  0
 15 28  1  0  0  0  0
 16 17  1  0  0  0  0
 16 21  1  0  0  0  0
 17 18  2  0  0  0  0
 17 19  2  0  0  0  0
 17 20  1  0  0  0  0
 21 22  2  0  0  0  0
 22 23  1  0  0  0  0
 22 27  1  0  0  0  0
 23 24  2  0  0  0  0
 23 25  1  0  0  0  0
 25 26  1  0  0  0  0
 27 28  2  0  0  0  0
M  END
