7H6C_A
 OpenBabel04062520543D

 27 30  0  0  0  0  0  0  0  0999 V2000
  -13.0060  -17.8880  -10.6630 C   0  0  0  0  0  0  0  0  0  0  0  0
  -13.7120  -17.7750   -9.4720 C   0  0  0  0  0  0  0  0  0  0  0  0
  -13.0650  -17.4220   -8.3010 C   0  0  0  0  0  0  0  0  0  0  0  0
  -11.6440  -17.6240  -10.7050 C   0  0  0  0  0  0  0  0  0  0  0  0
  -11.0010  -17.2920   -9.5190 C   0  0  0  0  0  0  0  0  0  0  0  0
  -11.7020  -17.1670   -8.3060 C   0  0  0  0  0  0  0  0  0  0  0  0
  -10.7460  -16.8280   -7.2960 C   0  0  0  0  0  0  0  0  0  0  0  0
   -9.5230  -16.7420   -7.9180 C   0  0  0  0  0  0  0  0  0  0  0  0
   -9.6790  -16.9840   -9.2840 N   0  0  0  0  0  0  0  0  0  0  0  0
  -11.0450  -16.5850   -5.8400 C   0  0  0  0  0  0  0  0  0  0  0  0
  -11.2990  -15.1570   -5.3820 C   0  0  0  0  0  0  0  0  0  0  0  0
   -8.2690  -16.2880   -7.2640 C   0  0  0  0  0  0  0  0  0  0  0  0
   -7.6870  -15.3110   -7.9960 O   0  0  0  0  0  0  0  0  0  0  0  0
   -7.8410  -16.6430   -6.1500 O   0  0  0  0  0  0  0  0  0  0  0  0
  -11.0560  -14.1110   -6.2320 C   0  0  0  0  0  0  0  0  0  0  0  0
  -11.2710  -12.7920   -5.8530 C   0  0  0  0  0  0  0  0  0  0  0  0
  -11.7670  -12.4960   -4.6260 C   0  0  0  0  0  0  0  0  0  0  0  0
  -11.8480  -14.8810   -4.0940 C   0  0  0  0  0  0  0  0  0  0  0  0
  -12.0680  -13.5200   -3.7100 C   0  0  0  0  0  0  0  0  0  0  0  0
  -12.6000  -13.2460   -2.4260 C   0  0  0  0  0  0  0  0  0  0  0  0
  -12.9350  -14.2580   -1.5820 C   0  0  0  0  0  0  0  0  0  0  0  0
  -12.6980  -15.5750   -1.9320 C   0  0  0  0  0  0  0  0  0  0  0  0
  -12.1710  -15.8910   -3.1550 C   0  0  0  0  0  0  0  0  0  0  0  0
   -8.6400  -17.0910  -10.3220 C   0  0  0  0  0  0  0  0  0  0  0  0
   -8.0590  -18.5120  -10.3220 C   0  0  0  0  0  0  0  0  0  0  0  0
   -7.6490  -18.8690   -8.9900 O   0  0  0  0  0  0  0  0  0  0  0  0
   -7.7500  -20.2590   -8.6010 C   0  0  0  0  0  0  0  0  0  0  0  0
  1  2  2  0  0  0  0
  1  4  1  0  0  0  0
  2  3  1  0  0  0  0
  3  6  2  0  0  0  0
  4  5  2  0  0  0  0
  5  6  1  0  0  0  0
  5  9  1  0  0  0  0
  6  7  1  0  0  0  0
  7  8  2  0  0  0  0
  7 10  1  0  0  0  0
  8  9  1  0  0  0  0
  8 12  1  0  0  0  0
  9 24  1  0  0  0  0
 10 11  1  0  0  0  0
 11 15  2  0  0  0  0
 11 18  1  0  0  0  0
 12 13  1  0  0  0  0
 12 14  2  0  0  0  0
 15 16  1  0  0  0  0
 16 17  2  0  0  0  0
 17 19  1  0  0  0  0
 18 19  2  0  0  0  0
 18 23  1  0  0  0  0
 19 20  1  0  0  0  0
 20 21  2  0  0  0  0
 21 22  1  0  0  0  0
 22 23  2  0  0  0  0
 24 25  1  0  0  0  0
 25 26  1  0  0  0  0
 26 27  1  0  0  0  0
M  END
