7H6D_A
 OpenBabel04062520543D

 24 27  0  0  0  0  0  0  0  0999 V2000
  -10.6840  -16.6920   -7.4480 N   0  0  0  0  0  0  0  0  0  0  0  0
   -9.4900  -16.4770   -8.1350 C   0  0  0  0  0  0  0  0  0  0  0  0
   -9.6990  -16.6610   -9.4690 C   0  0  0  0  0  0  0  0  0  0  0  0
  -10.9450  -16.5270   -6.0130 C   0  0  0  0  0  0  0  0  0  0  0  0
  -11.6590  -17.0470   -8.3860 C   0  0  0  0  0  0  0  0  0  0  0  0
  -11.2410  -15.1010   -5.5910 C   0  0  0  0  0  0  0  0  0  0  0  0
  -11.0480  -17.0500   -9.6540 C   0  0  0  0  0  0  0  0  0  0  0  0
   -8.2370  -15.9640   -7.5630 C   0  0  0  0  0  0  0  0  0  0  0  0
  -11.7390  -14.6980   -4.2850 C   0  0  0  0  0  0  0  0  0  0  0  0
   -7.4540  -15.2280   -8.2060 O   0  0  0  0  0  0  0  0  0  0  0  0
  -11.9940  -15.5830   -3.1780 C   0  0  0  0  0  0  0  0  0  0  0  0
  -11.9570  -13.2900   -4.0710 C   0  0  0  0  0  0  0  0  0  0  0  0
   -8.0120  -16.2970   -6.3000 O   0  0  0  0  0  0  0  0  0  0  0  0
  -11.0830  -14.1430   -6.5770 C   0  0  0  0  0  0  0  0  0  0  0  0
  -12.9940  -17.3800   -8.2260 C   0  0  0  0  0  0  0  0  0  0  0  0
  -11.8170  -17.3870  -10.7700 C   0  0  0  0  0  0  0  0  0  0  0  0
  -11.2940  -12.7990   -6.3340 C   0  0  0  0  0  0  0  0  0  0  0  0
  -12.6910  -13.6940   -1.8160 C   0  0  0  0  0  0  0  0  0  0  0  0
  -12.4810  -15.0520   -1.9940 C   0  0  0  0  0  0  0  0  0  0  0  0
  -12.4210  -12.8240   -2.8230 C   0  0  0  0  0  0  0  0  0  0  0  0
  -11.7060  -12.3690   -5.1160 C   0  0  0  0  0  0  0  0  0  0  0  0
  -11.7780  -17.0730   -3.1840 C   0  0  0  0  0  0  0  0  0  0  0  0
  -13.7310  -17.7350   -9.3500 C   0  0  0  0  0  0  0  0  0  0  0  0
  -13.1480  -17.7340  -10.6110 C   0  0  0  0  0  0  0  0  0  0  0  0
  1  2  1  0  0  0  0
  1  4  1  0  0  0  0
  1  5  1  0  0  0  0
  2  3  2  0  0  0  0
  2  8  1  0  0  0  0
  3  7  1  0  0  0  0
  4  6  1  0  0  0  0
  5  7  2  0  0  0  0
  5 15  1  0  0  0  0
  6  9  2  0  0  0  0
  6 14  1  0  0  0  0
  7 16  1  0  0  0  0
  8 10  1  0  0  0  0
  8 13  2  0  0  0  0
  9 11  1  0  0  0  0
  9 12  1  0  0  0  0
 11 19  2  0  0  0  0
 11 22  1  0  0  0  0
 12 20  1  0  0  0  0
 12 21  2  0  0  0  0
 14 17  2  0  0  0  0
 15 23  2  0  0  0  0
 16 24  2  0  0  0  0
 17 21  1  0  0  0  0
 18 19  1  0  0  0  0
 18 20  2  0  0  0  0
 23 24  1  0  0  0  0
M  END
