7H6E_A
 OpenBabel04062513013D

 31 34  0  0  0  0  0  0  0  0999 V2000
  -10.2800  -13.4530   -6.5590 S   0  0  0  0  0  0  0  0  0  0  0  0
  -11.1420  -13.6080   -5.0480 C   0  0  0  0  0  0  0  0  0  0  0  0
  -11.5620  -12.1490   -4.2370 S   0  0  0  0  0  0  0  0  0  0  0  0
  -13.0480  -14.7330   -9.1930 C   0  0  0  0  0  0  0  0  0  0  0  0
  -11.4720  -14.7450   -4.4090 C   0  0  0  0  0  0  0  0  0  0  0  0
  -12.2740  -16.1500   -9.7190 S   0  0  0  0  0  0  0  0  0  0  0  0
  -11.1120  -14.2600   -7.8410 N   0  0  0  0  0  0  0  0  0  0  0  0
  -12.1530  -14.4420   -3.1850 C   0  0  0  0  0  0  0  0  0  0  0  0
  -12.3890  -13.8720   -8.2880 C   0  0  0  0  0  0  0  0  0  0  0  0
  -12.2920  -13.0530   -2.9370 C   0  0  0  0  0  0  0  0  0  0  0  0
  -14.2640  -14.4340   -9.7210 C   0  0  0  0  0  0  0  0  0  0  0  0
  -10.2180  -12.0170   -6.6560 O   0  0  0  0  0  0  0  0  0  0  0  0
   -9.1360  -14.3560   -6.4100 O   0  0  0  0  0  0  0  0  0  0  0  0
  -14.9100  -13.2630   -9.2430 C   0  0  0  0  0  0  0  0  0  0  0  0
  -13.1630  -16.6770  -10.7300 O   0  0  0  0  0  0  0  0  0  0  0  0
  -11.0460  -15.7400  -10.3640 O   0  0  0  0  0  0  0  0  0  0  0  0
  -12.7080  -15.3350   -2.2730 C   0  0  0  0  0  0  0  0  0  0  0  0
  -13.0380  -12.6880   -7.8590 C   0  0  0  0  0  0  0  0  0  0  0  0
  -12.9160  -12.4710   -1.8600 C   0  0  0  0  0  0  0  0  0  0  0  0
  -18.7840  -12.4690  -10.7740 N   0  0  0  0  0  0  0  0  0  0  0  0
  -14.2770  -12.3840   -8.3280 C   0  0  0  0  0  0  0  0  0  0  0  0
  -16.2510  -12.9830   -9.7580 C   0  0  0  0  0  0  0  0  0  0  0  0
  -13.2150  -14.7280   -1.1960 C   0  0  0  0  0  0  0  0  0  0  0  0
  -12.1980  -17.1920   -8.2620 C   0  0  0  0  0  0  0  0  0  0  0  0
  -11.1410  -16.1370   -4.9270 C   0  0  0  0  0  0  0  0  0  0  0  0
  -13.3980  -13.3350   -0.9400 C   0  0  0  0  0  0  0  0  0  0  0  0
  -18.3280  -13.8190  -10.7360 C   0  0  0  0  0  0  0  0  0  0  0  0
  -17.9950  -11.3780  -10.3060 C   0  0  0  0  0  0  0  0  0  0  0  0
  -17.0630  -14.1090  -10.2160 C   0  0  0  0  0  0  0  0  0  0  0  0
  -16.7210  -11.6220   -9.7830 C   0  0  0  0  0  0  0  0  0  0  0  0
  -13.6660  -15.5650   -0.3030 F   0  0  0  0  0  0  0  0  0  0  0  0
  1  2  1  0  0  0  0
  1  7  1  0  0  0  0
  1 12  2  0  0  0  0
  1 13  2  0  0  0  0
  2  3  1  0  0  0  0
  2  5  2  0  0  0  0
  3 10  1  0  0  0  0
  4  6  1  0  0  0  0
  4  9  2  0  0  0  0
  4 11  1  0  0  0  0
  5  8  1  0  0  0  0
  5 25  1  0  0  0  0
  6 15  2  0  0  0  0
  6 16  2  0  0  0  0
  6 24  1  0  0  0  0
  7  9  1  0  0  0  0
  8 10  2  0  0  0  0
  8 17  1  0  0  0  0
  9 18  1  0  0  0  0
 10 19  1  0  0  0  0
 11 14  2  0  0  0  0
 14 21  1  0  0  0  0
 14 22  1  0  0  0  0
 17 23  2  0  0  0  0
 18 21  2  0  0  0  0
 19 26  2  0  0  0  0
 20 27  2  0  0  0  0
 20 28  1  0  0  0  0
 22 29  2  0  0  0  0
 22 30  1  0  0  0  0
 23 26  1  0  0  0  0
 23 31  1  0  0  0  0
 27 29  1  0  0  0  0
 28 30  2  0  0  0  0
M  END
