7H6F_A
 OpenBabel04062513013D

 29 32  0  0  0  0  0  0  0  0999 V2000
  -10.5900  -17.3790   -6.4560 N   0  0  0  0  0  0  0  0  0  0  0  0
   -9.0040  -17.6250   -7.9860 C   0  0  0  0  0  0  0  0  0  0  0  0
   -9.2350  -17.4400   -6.6670 C   0  0  0  0  0  0  0  0  0  0  0  0
  -11.3740  -15.7110   -4.9030 C   0  0  0  0  0  0  0  0  0  0  0  0
  -11.2340  -17.5280   -7.6320 C   0  0  0  0  0  0  0  0  0  0  0  0
  -10.2700  -17.6900   -8.6270 C   0  0  0  0  0  0  0  0  0  0  0  0
  -11.2620  -17.1530   -5.2150 C   0  0  0  0  0  0  0  0  0  0  0  0
   -7.6850  -17.7780   -8.6570 C   0  0  0  0  0  0  0  0  0  0  0  0
  -11.9160  -15.2850   -3.6770 C   0  0  0  0  0  0  0  0  0  0  0  0
   -7.5890  -19.1480   -9.2790 C   0  0  0  0  0  0  0  0  0  0  0  0
  -11.0010  -14.6740   -5.6890 C   0  0  0  0  0  0  0  0  0  0  0  0
  -11.2990  -13.1690   -4.9940 S   0  0  0  0  0  0  0  0  0  0  0  0
   -8.2710  -17.3020   -5.6170 C   0  0  0  0  0  0  0  0  0  0  0  0
  -11.9360  -13.8990   -3.5860 C   0  0  0  0  0  0  0  0  0  0  0  0
   -7.4480  -20.2130   -8.4700 N   0  0  0  0  0  0  0  0  0  0  0  0
  -12.3980  -16.0330   -2.6350 C   0  0  0  0  0  0  0  0  0  0  0  0
   -7.7080  -19.2710  -10.4800 O   0  0  0  0  0  0  0  0  0  0  0  0
   -7.1940  -16.8240   -5.8190 O   0  0  0  0  0  0  0  0  0  0  0  0
  -12.4260  -13.2650   -2.4680 C   0  0  0  0  0  0  0  0  0  0  0  0
  -12.9160  -15.3660   -1.5800 C   0  0  0  0  0  0  0  0  0  0  0  0
   -8.5910  -17.8630   -4.5430 O   0  0  0  0  0  0  0  0  0  0  0  0
  -12.9200  -14.0210   -1.4430 C   0  0  0  0  0  0  0  0  0  0  0  0
  -12.5970  -17.5270   -7.9000 C   0  0  0  0  0  0  0  0  0  0  0  0
  -10.6930  -17.8910   -9.9240 C   0  0  0  0  0  0  0  0  0  0  0  0
   -7.2470  -20.1900   -7.0300 C   0  0  0  0  0  0  0  0  0  0  0  0
   -7.4510  -21.5380   -9.0610 C   0  0  0  0  0  0  0  0  0  0  0  0
  -12.9890  -17.7760   -9.1960 C   0  0  0  0  0  0  0  0  0  0  0  0
  -12.0440  -17.8760  -10.2110 C   0  0  0  0  0  0  0  0  0  0  0  0
  -13.3630  -16.0880   -0.5870 F   0  0  0  0  0  0  0  0  0  0  0  0
  1  3  1  0  0  0  0
  1  5  1  0  0  0  0
  1  7  1  0  0  0  0
  2  3  2  0  0  0  0
  2  6  1  0  0  0  0
  2  8  1  0  0  0  0
  3 13  1  0  0  0  0
  4  7  1  0  0  0  0
  4  9  1  0  0  0  0
  4 11  2  0  0  0  0
  5  6  2  0  0  0  0
  5 23  1  0  0  0  0
  6 24  1  0  0  0  0
  8 10  1  0  0  0  0
  9 14  2  0  0  0  0
  9 16  1  0  0  0  0
 10 15  1  0  0  0  0
 10 17  2  0  0  0  0
 11 12  1  0  0  0  0
 12 14  1  0  0  0  0
 13 18  1  0  0  0  0
 13 21  1  0  0  0  0
 14 19  1  0  0  0  0
 15 25  1  0  0  0  0
 15 26  1  0  0  0  0
 16 20  2  0  0  0  0
 19 22  2  0  0  0  0
 20 22  1  0  0  0  0
 20 29  1  0  0  0  0
 23 27  2  0  0  0  0
 24 28  2  0  0  0  0
 27 28  1  0  0  0  0
M  END
