9GBH_A
 OpenBabel04062520543D

 14 14  0  0  0  0  0  0  0  0999 V2000
   11.1240  -20.5680    9.6330 C   0  0  0  0  0  0  0  0  0  0  0  0
   12.2770  -20.4790    8.6360 C   0  0  2  0  0  0  0  0  0  0  0  0
   12.6150  -21.7480    8.0070 N   0  0  0  0  0  0  0  0  0  0  0  0
   13.4380  -19.7610    9.3250 C   0  0  1  0  0  0  0  0  0  0  0  0
   14.4550  -19.4520    8.3810 O   0  0  0  0  0  0  0  0  0  0  0  0
   12.9180  -18.4940   10.0070 C   0  0  2  0  0  0  0  0  0  0  0  0
   13.9870  -17.7320   10.5650 O   0  0  0  0  0  0  0  0  0  0  0  0
   11.9350  -18.8720   11.1150 C   0  0  2  0  0  0  0  0  0  0  0  0
   11.5220  -20.2450   10.9570 O   0  0  0  0  0  0  0  0  0  0  0  0
   10.6820  -18.0150   11.1020 C   0  0  0  0  0  0  0  0  0  0  0  0
    9.6750  -18.5340   11.9590 O   0  0  0  0  0  0  0  0  0  0  0  0
   12.4380  -21.9800    6.6950 C   0  0  0  0  0  0  0  0  0  0  0  0
   11.6080  -21.3590    6.0350 O   0  0  0  0  0  0  0  0  0  0  0  0
   13.3010  -23.0360    6.0660 C   0  0  0  0  0  0  0  0  0  0  0  0
  1  2  1  0  0  0  0
  1  9  1  0  0  0  0
  2  3  1  1  0  0  0
  2  4  1  0  0  0  0
  3 12  1  0  0  0  0
  4  5  1  6  0  0  0
  4  6  1  0  0  0  0
  6  7  1  1  0  0  0
  6  8  1  0  0  0  0
  8  9  1  0  0  0  0
  8 10  1  6  0  0  0
 10 11  1  0  0  0  0
 12 13  2  0  0  0  0
 12 14  1  0  0  0  0
M  END
