9GBH_A
 OpenBabel04062520543D

 14 14  0  0  0  0  0  0  0  0999 V2000
    6.2570  -23.1970    9.4270 C   0  0  0  0  0  0  0  0  0  0  0  0
    6.5620  -22.0470   10.3890 C   0  0  2  0  0  0  0  0  0  0  0  0
    5.3630  -21.3510   10.8090 N   0  0  0  0  0  0  0  0  0  0  0  0
    7.5450  -21.0900    9.7080 C   0  0  1  0  0  0  0  0  0  0  0  0
    7.9270  -20.0290   10.5800 O   0  0  0  0  0  0  0  0  0  0  0  0
    8.7870  -21.8370    9.2300 C   0  0  2  0  0  0  0  0  0  0  0  0
    9.4820  -20.9890    8.3220 O   0  0  0  0  0  0  0  0  0  0  0  0
    8.4530  -23.1270    8.4800 C   0  0  2  0  0  0  0  0  0  0  0  0
    7.4660  -23.9030    9.1900 O   0  0  0  0  0  0  0  0  0  0  0  0
    9.6700  -24.0220    8.2840 C   0  0  0  0  0  0  0  0  0  0  0  0
   10.1550  -24.5590    9.5250 O   0  0  0  0  0  0  0  0  0  0  0  0
    4.6650  -21.5190   11.9350 C   0  0  0  0  0  0  0  0  0  0  0  0
    3.7600  -20.7430   12.2280 O   0  0  0  0  0  0  0  0  0  0  0  0
    5.0040  -22.6940   12.8060 C   0  0  0  0  0  0  0  0  0  0  0  0
  1  2  1  0  0  0  0
  1  9  1  0  0  0  0
  2  3  1  6  0  0  0
  2  4  1  0  0  0  0
  3 12  1  0  0  0  0
  4  5  1  1  0  0  0
  4  6  1  0  0  0  0
  6  7  1  6  0  0  0
  6  8  1  0  0  0  0
  8  9  1  0  0  0  0
  8 10  1  1  0  0  0
 10 11  1  0  0  0  0
 12 13  2  0  0  0  0
 12 14  1  0  0  0  0
M  END
