9GBH_A
 OpenBabel04062520543D

 14 14  0  0  0  0  0  0  0  0999 V2000
  -21.9130  -18.4080  -19.0230 C   0  0  0  0  0  0  0  0  0  0  0  0
  -22.3380  -19.0260  -20.3610 C   0  0  2  0  0  0  0  0  0  0  0  0
  -21.3400  -19.9700  -20.8250 N   0  0  0  0  0  0  0  0  0  0  0  0
  -22.6790  -17.9250  -21.3710 C   0  0  1  0  0  0  0  0  0  0  0  0
  -23.0790  -18.4600  -22.6300 O   0  0  0  0  0  0  0  0  0  0  0  0
  -23.7170  -17.0110  -20.7150 C   0  0  2  0  0  0  0  0  0  0  0  0
  -24.3440  -16.0600  -21.5800 O   0  0  0  0  0  0  0  0  0  0  0  0
  -22.9730  -16.3250  -19.5640 C   0  0  2  0  0  0  0  0  0  0  0  0
  -22.7260  -17.3370  -18.5530 O   0  0  0  0  0  0  0  0  0  0  0  0
  -23.6910  -15.1610  -18.9020 C   0  0  0  0  0  0  0  0  0  0  0  0
  -25.0060  -15.4980  -18.4600 O   0  0  0  0  0  0  0  0  0  0  0  0
  -21.5230  -21.2900  -20.7260 C   0  0  0  0  0  0  0  0  0  0  0  0
  -22.2720  -21.7660  -19.8790 O   0  0  0  0  0  0  0  0  0  0  0  0
  -20.7640  -22.1600  -21.6860 C   0  0  0  0  0  0  0  0  0  0  0  0
  1  2  1  0  0  0  0
  1  9  1  0  0  0  0
  2  3  1  6  0  0  0
  2  4  1  0  0  0  0
  3 12  1  0  0  0  0
  4  5  1  6  0  0  0
  4  6  1  0  0  0  0
  6  7  1  6  0  0  0
  6  8  1  0  0  0  0
  8  9  1  0  0  0  0
  8 10  1  1  0  0  0
 10 11  1  0  0  0  0
 12 13  2  0  0  0  0
 12 14  1  0  0  0  0
M  END
