9GC1_A
 OpenBabel04062520543D

 31 33  0  0  0  0  0  0  0  0999 V2000
  -12.5960  -11.9920   -2.0560 C   0  0  0  0  0  0  0  0  0  0  0  0
  -13.0240  -13.1360   -1.3730 C   0  0  0  0  0  0  0  0  0  0  0  0
  -12.7150  -14.4180   -1.8350 C   0  0  0  0  0  0  0  0  0  0  0  0
  -11.9640  -14.6040   -3.0050 C   0  0  0  0  0  0  0  0  0  0  0  0
  -11.5430  -13.4800   -3.6850 C   0  0  0  0  0  0  0  0  0  0  0  0
  -11.8680  -12.1840   -3.2230 C   0  0  0  0  0  0  0  0  0  0  0  0
  -10.7250  -13.5470   -4.9340 C   0  0  0  0  0  0  0  0  0  0  0  0
  -11.2370  -12.7890   -6.0950 N   0  0  0  0  0  0  0  0  0  0  0  0
  -10.4570  -11.7290   -6.5450 C   0  0  0  0  0  0  0  0  0  0  0  0
  -10.8460  -11.0090   -7.6610 C   0  0  0  0  0  0  0  0  0  0  0  0
  -12.0000  -11.3380   -8.3410 C   0  0  0  0  0  0  0  0  0  0  0  0
  -12.7710  -12.3890   -7.9220 N   0  0  0  0  0  0  0  0  0  0  0  0
  -13.9530  -12.6120   -8.6110 C   0  0  0  0  0  0  0  0  0  0  0  0
  -14.1690  -13.7290   -9.4260 C   0  0  0  0  0  0  0  0  0  0  0  0
  -15.4000  -13.8550  -10.0690 C   0  0  0  0  0  0  0  0  0  0  0  0
  -16.3980  -12.8850   -9.8660 C   0  0  0  0  0  0  0  0  0  0  0  0
  -16.1720  -11.7790   -9.0450 C   0  0  0  0  0  0  0  0  0  0  0  0
  -14.9420  -11.6540   -8.4190 C   0  0  0  0  0  0  0  0  0  0  0  0
  -17.6130  -13.0070  -10.4640 O   0  0  0  0  0  0  0  0  0  0  0  0
  -17.8530  -14.4090  -10.7790 C   0  0  0  0  0  0  0  0  0  0  0  0
  -12.4050  -13.1200   -6.7870 C   0  0  0  0  0  0  0  0  0  0  0  0
  -13.0660  -14.0320   -6.3530 O   0  0  0  0  0  0  0  0  0  0  0  0
   -9.9810   -9.8620   -8.2660 C   0  0  0  0  0  0  0  0  0  0  0  0
  -10.5350   -9.2240   -9.1950 O   0  0  0  0  0  0  0  0  0  0  0  0
   -8.7390   -9.7820   -7.9330 O   0  0  0  0  0  0  0  0  0  0  0  0
   -9.4210  -11.4970   -5.9060 O   0  0  0  0  0  0  0  0  0  0  0  0
  -11.6610  -16.0230   -3.4880 C   0  0  0  0  0  0  0  0  0  0  0  0
  -13.2010  -15.6560   -1.1250 C   0  0  0  0  0  0  0  0  0  0  0  0
  -13.9410  -15.3110   -0.0650 F   0  0  0  0  0  0  0  0  0  0  0  0
  -12.1990  -16.4790   -0.7280 F   0  0  0  0  0  0  0  0  0  0  0  0
  -13.9160  -16.2690   -2.0830 F   0  0  0  0  0  0  0  0  0  0  0  0
  1  2  2  0  0  0  0
  1  6  1  0  0  0  0
  2  3  1  0  0  0  0
  3  4  2  0  0  0  0
  3 28  1  0  0  0  0
  4  5  1  0  0  0  0
  4 27  1  0  0  0  0
  5  6  2  0  0  0  0
  5  7  1  0  0  0  0
  7  8  1  0  0  0  0
  8  9  1  0  0  0  0
  8 21  1  0  0  0  0
  9 10  1  0  0  0  0
  9 26  2  0  0  0  0
 10 11  2  0  0  0  0
 10 23  1  0  0  0  0
 11 12  1  0  0  0  0
 12 13  1  0  0  0  0
 12 21  1  0  0  0  0
 13 14  2  0  0  0  0
 13 18  1  0  0  0  0
 14 15  1  0  0  0  0
 15 16  2  0  0  0  0
 16 17  1  0  0  0  0
 16 19  1  0  0  0  0
 17 18  2  0  0  0  0
 19 20  1  0  0  0  0
 21 22  2  0  0  0  0
 23 24  1  0  0  0  0
 23 25  2  0  0  0  0
 28 29  1  0  0  0  0
 28 30  1  0  0  0  0
 28 31  1  0  0  0  0
M  END
