9GC1_A
 OpenBabel04062520543D

 14 14  0  0  0  0  0  0  0  0999 V2000
   11.1710  -20.9770    9.5240 C   0  0  0  0  0  0  0  0  0  0  0  0
   12.3620  -20.8160    8.5830 C   0  0  2  0  0  0  0  0  0  0  0  0
   12.8930  -22.0920    8.1450 N   0  0  0  0  0  0  0  0  0  0  0  0
   13.4450  -19.9730    9.2360 C   0  0  1  0  0  0  0  0  0  0  0  0
   14.4150  -19.7040    8.2360 O   0  0  0  0  0  0  0  0  0  0  0  0
   12.8660  -18.6850    9.8050 C   0  0  2  0  0  0  0  0  0  0  0  0
   13.9090  -17.9540   10.4450 O   0  0  0  0  0  0  0  0  0  0  0  0
   11.7630  -19.0080   10.8120 C   0  0  2  0  0  0  0  0  0  0  0  0
   10.7380  -19.8050   10.1900 O   0  0  0  0  0  0  0  0  0  0  0  0
   11.0530  -17.7720   11.3260 C   0  0  0  0  0  0  0  0  0  0  0  0
   10.1510  -18.0720   12.3920 O   0  0  0  0  0  0  0  0  0  0  0  0
   12.6960  -22.5650    6.9090 C   0  0  0  0  0  0  0  0  0  0  0  0
   12.1580  -21.8910    6.0350 O   0  0  0  0  0  0  0  0  0  0  0  0
   13.1610  -23.9670    6.6510 C   0  0  0  0  0  0  0  0  0  0  0  0
  1  2  1  0  0  0  0
  1  9  1  0  0  0  0
  2  3  1  1  0  0  0
  2  4  1  0  0  0  0
  3 12  1  0  0  0  0
  4  5  1  6  0  0  0
  4  6  1  0  0  0  0
  6  7  1  1  0  0  0
  6  8  1  0  0  0  0
  8  9  1  0  0  0  0
  8 10  1  6  0  0  0
 10 11  1  0  0  0  0
 12 13  2  0  0  0  0
 12 14  1  0  0  0  0
M  END
