9GC9_A
 OpenBabel04062520543D

 35 38  0  0  0  0  0  0  0  0999 V2000
  -12.5400  -11.9420   -1.7620 C   0  0  0  0  0  0  0  0  0  0  0  0
  -11.7330  -12.0540   -2.8930 C   0  0  0  0  0  0  0  0  0  0  0  0
  -11.4250  -13.3120   -3.3900 C   0  0  0  0  0  0  0  0  0  0  0  0
  -11.9110  -14.4730   -2.8000 C   0  0  0  0  0  0  0  0  0  0  0  0
  -12.7220  -14.3590   -1.6610 C   0  0  0  0  0  0  0  0  0  0  0  0
  -13.0320  -13.0940   -1.1560 C   0  0  0  0  0  0  0  0  0  0  0  0
  -13.3040  -15.5850   -1.0000 C   0  0  0  0  0  0  0  0  0  0  0  0
  -11.5050  -15.8100   -3.4010 C   0  0  0  0  0  0  0  0  0  0  0  0
  -10.5060  -13.3860   -4.5610 C   0  0  0  0  0  0  0  0  0  0  0  0
  -10.9610  -12.6920   -5.7410 N   0  0  0  0  0  0  0  0  0  0  0  0
  -10.1070  -11.6980   -6.1350 C   0  0  0  0  0  0  0  0  0  0  0  0
  -10.4140  -10.9660   -7.2890 C   0  0  0  0  0  0  0  0  0  0  0  0
  -11.5590  -11.2800   -8.0080 C   0  0  0  0  0  0  0  0  0  0  0  0
  -12.4010  -12.2900   -7.5860 N   0  0  0  0  0  0  0  0  0  0  0  0
  -13.5230  -12.5210   -8.3520 C   0  0  0  0  0  0  0  0  0  0  0  0
  -14.6140  -11.7010   -8.1450 C   0  0  0  0  0  0  0  0  0  0  0  0
  -15.7700  -11.9090   -8.9000 C   0  0  0  0  0  0  0  0  0  0  0  0
  -15.8150  -12.9180   -9.8690 C   0  0  0  0  0  0  0  0  0  0  0  0
  -14.6830  -13.7220  -10.0710 C   0  0  0  0  0  0  0  0  0  0  0  0
  -13.5420  -13.5180   -9.3140 C   0  0  0  0  0  0  0  0  0  0  0  0
  -16.9180  -13.1100  -10.5960 N   0  0  0  0  0  0  0  0  0  0  0  0
  -18.1960  -12.5310  -10.2260 C   0  0  0  0  0  0  0  0  0  0  0  0
  -19.1190  -13.2200  -11.2160 C   0  0  0  0  0  0  0  0  0  0  0  0
  -18.1970  -13.7430  -12.2350 N   0  0  0  0  0  0  0  0  0  0  0  0
  -16.9540  -13.3640  -11.9270 C   0  0  0  0  0  0  0  0  0  0  0  0
  -15.9930  -13.5080  -12.7180 O   0  0  0  0  0  0  0  0  0  0  0  0
  -12.1040  -13.0210   -6.4400 C   0  0  0  0  0  0  0  0  0  0  0  0
  -12.8170  -13.9340   -6.0340 O   0  0  0  0  0  0  0  0  0  0  0  0
   -9.4900   -9.8560   -7.8450 C   0  0  0  0  0  0  0  0  0  0  0  0
   -8.3020   -9.9440   -7.4770 O   0  0  0  0  0  0  0  0  0  0  0  0
   -9.9000   -9.1130   -8.7800 O   0  0  0  0  0  0  0  0  0  0  0  0
   -9.1320  -11.5120   -5.3920 O   0  0  0  0  0  0  0  0  0  0  0  0
  -14.0240  -15.1980    0.0080 F   0  0  0  0  0  0  0  0  0  0  0  0
  -12.3700  -16.4010   -0.5280 F   0  0  0  0  0  0  0  0  0  0  0  0
  -14.0840  -16.1710   -1.9170 F   0  0  0  0  0  0  0  0  0  0  0  0
  1  2  2  0  0  0  0
  1  6  1  0  0  0  0
  2  3  1  0  0  0  0
  3  4  2  0  0  0  0
  3  9  1  0  0  0  0
  4  5  1  0  0  0  0
  4  8  1  0  0  0  0
  5  6  2  0  0  0  0
  5  7  1  0  0  0  0
  7 33  1  0  0  0  0
  7 34  1  0  0  0  0
  7 35  1  0  0  0  0
  9 10  1  0  0  0  0
 10 11  1  0  0  0  0
 10 27  1  0  0  0  0
 11 12  1  0  0  0  0
 11 32  2  0  0  0  0
 12 13  2  0  0  0  0
 12 29  1  0  0  0  0
 13 14  1  0  0  0  0
 14 15  1  0  0  0  0
 14 27  1  0  0  0  0
 15 16  2  0  0  0  0
 15 20  1  0  0  0  0
 16 17  1  0  0  0  0
 17 18  2  0  0  0  0
 18 19  1  0  0  0  0
 18 21  1  0  0  0  0
 19 20  2  0  0  0  0
 21 22  1  0  0  0  0
 21 25  1  0  0  0  0
 22 23  1  0  0  0  0
 23 24  1  0  0  0  0
 24 25  1  0  0  0  0
 25 26  2  0  0  0  0
 27 28  2  0  0  0  0
 29 30  1  0  0  0  0
 29 31  2  0  0  0  0
M  END
