9GC9_A
 OpenBabel04062520543D

 14 14  0  0  0  0  0  0  0  0999 V2000
  -22.1000  -18.4470  -19.1660 C   0  0  0  0  0  0  0  0  0  0  0  0
  -22.3860  -19.1010  -20.5300 C   0  0  2  0  0  0  0  0  0  0  0  0
  -21.1780  -19.6670  -21.1110 N   0  0  0  0  0  0  0  0  0  0  0  0
  -23.0240  -18.1500  -21.5500 C   0  0  1  0  0  0  0  0  0  0  0  0
  -23.8060  -18.9600  -22.4170 O   0  0  0  0  0  0  0  0  0  0  0  0
  -23.8850  -17.0490  -20.9350 C   0  0  2  0  0  0  0  0  0  0  0  0
  -24.2790  -16.1160  -21.9510 O   0  0  0  0  0  0  0  0  0  0  0  0
  -23.0960  -16.3790  -19.8090 C   0  0  2  0  0  0  0  0  0  0  0  0
  -22.9260  -17.3590  -18.7630 O   0  0  0  0  0  0  0  0  0  0  0  0
  -23.7510  -15.1550  -19.1860 C   0  0  0  0  0  0  0  0  0  0  0  0
  -24.7170  -15.4710  -18.1750 O   0  0  0  0  0  0  0  0  0  0  0  0
  -20.6970  -20.9040  -20.9090 C   0  0  0  0  0  0  0  0  0  0  0  0
  -21.1340  -21.6490  -20.0360 O   0  0  0  0  0  0  0  0  0  0  0  0
  -19.5610  -21.3230  -21.7950 C   0  0  0  0  0  0  0  0  0  0  0  0
  1  2  1  0  0  0  0
  1  9  1  0  0  0  0
  2  3  1  6  0  0  0
  2  4  1  0  0  0  0
  3 12  1  0  0  0  0
  4  5  1  6  0  0  0
  4  6  1  0  0  0  0
  6  7  1  6  0  0  0
  6  8  1  0  0  0  0
  8  9  1  0  0  0  0
  8 10  1  1  0  0  0
 10 11  1  0  0  0  0
 12 13  2  0  0  0  0
 12 14  1  0  0  0  0
M  END
