9GC9_A
 OpenBabel04062520543D

 14 14  0  0  0  0  0  0  0  0999 V2000
    6.5120  -23.2190    9.2930 C   0  0  0  0  0  0  0  0  0  0  0  0
    6.8700  -22.2150   10.3920 C   0  0  2  0  0  0  0  0  0  0  0  0
    5.6820  -21.4750   10.7640 N   0  0  0  0  0  0  0  0  0  0  0  0
    7.9910  -21.2670    9.9350 C   0  0  1  0  0  0  0  0  0  0  0  0
    8.3500  -20.3890   10.9970 O   0  0  0  0  0  0  0  0  0  0  0  0
    9.2050  -22.0440    9.4240 C   0  0  2  0  0  0  0  0  0  0  0  0
   10.1990  -21.1660    8.8830 O   0  0  0  0  0  0  0  0  0  0  0  0
    8.7160  -23.0120    8.3470 C   0  0  2  0  0  0  0  0  0  0  0  0
    7.7090  -23.8810    8.9120 O   0  0  0  0  0  0  0  0  0  0  0  0
    9.7990  -23.8960    7.7550 C   0  0  0  0  0  0  0  0  0  0  0  0
   10.2470  -24.8850    8.6680 O   0  0  0  0  0  0  0  0  0  0  0  0
    4.8680  -21.7090   11.8030 C   0  0  0  0  0  0  0  0  0  0  0  0
    3.9810  -20.9080   12.0870 O   0  0  0  0  0  0  0  0  0  0  0  0
    5.0640  -22.9810   12.5840 C   0  0  0  0  0  0  0  0  0  0  0  0
  1  2  1  0  0  0  0
  1  9  1  0  0  0  0
  2  3  1  6  0  0  0
  2  4  1  0  0  0  0
  3 12  1  0  0  0  0
  4  5  1  1  0  0  0
  4  6  1  0  0  0  0
  6  7  1  6  0  0  0
  6  8  1  0  0  0  0
  8  9  1  0  0  0  0
  8 10  1  1  0  0  0
 10 11  1  0  0  0  0
 12 13  2  0  0  0  0
 12 14  1  0  0  0  0
M  END
