9GC9_A
 OpenBabel04062520543D

 14 14  0  0  0  0  0  0  0  0999 V2000
   11.1780  -20.5840    9.8110 C   0  0  0  0  0  0  0  0  0  0  0  0
   12.5610  -20.5550    9.1410 C   0  0  2  0  0  0  0  0  0  0  0  0
   13.0810  -21.9010    9.0020 N   0  0  0  0  0  0  0  0  0  0  0  0
   13.5680  -19.6900    9.9090 C   0  0  1  0  0  0  0  0  0  0  0  0
   14.7630  -19.5110    9.1590 O   0  0  0  0  0  0  0  0  0  0  0  0
   12.9590  -18.3430   10.2730 C   0  0  2  0  0  0  0  0  0  0  0  0
   13.8900  -17.5500   11.0110 O   0  0  0  0  0  0  0  0  0  0  0  0
   11.7080  -18.6190   11.0980 C   0  0  2  0  0  0  0  0  0  0  0  0
   10.7510  -19.3030   10.2570 O   0  0  0  0  0  0  0  0  0  0  0  0
   11.0420  -17.3650   11.6190 C   0  0  0  0  0  0  0  0  0  0  0  0
    9.8130  -17.6630   12.2840 O   0  0  0  0  0  0  0  0  0  0  0  0
   13.0830  -22.5720    7.8520 C   0  0  0  0  0  0  0  0  0  0  0  0
   12.5450  -22.1200    6.8450 O   0  0  0  0  0  0  0  0  0  0  0  0
   13.7730  -23.9030    7.8630 C   0  0  0  0  0  0  0  0  0  0  0  0
  1  2  1  0  0  0  0
  1  9  1  0  0  0  0
  2  3  1  1  0  0  0
  2  4  1  0  0  0  0
  3 12  1  0  0  0  0
  4  5  1  6  0  0  0
  4  6  1  0  0  0  0
  6  7  1  1  0  0  0
  6  8  1  0  0  0  0
  8  9  1  0  0  0  0
  8 10  1  6  0  0  0
 10 11  1  0  0  0  0
 12 13  2  0  0  0  0
 12 14  1  0  0  0  0
M  END
