9GCC_A
 OpenBabel04062520543D

 14 14  0  0  0  0  0  0  0  0999 V2000
   11.3650  -21.1920    9.2490 C   0  0  0  0  0  0  0  0  0  0  0  0
   12.4950  -21.0430    8.2230 C   0  0  2  0  0  0  0  0  0  0  0  0
   12.9340  -22.2910    7.6200 N   0  0  0  0  0  0  0  0  0  0  0  0
   13.7010  -20.3290    8.8290 C   0  0  1  0  0  0  0  0  0  0  0  0
   14.6090  -20.0350    7.7750 O   0  0  0  0  0  0  0  0  0  0  0  0
   13.2960  -19.0600    9.5660 C   0  0  2  0  0  0  0  0  0  0  0  0
   14.4460  -18.4830   10.1900 O   0  0  0  0  0  0  0  0  0  0  0  0
   12.2560  -19.4130   10.6240 C   0  0  2  0  0  0  0  0  0  0  0  0
   11.1000  -20.0120    9.9920 O   0  0  0  0  0  0  0  0  0  0  0  0
   11.7900  -18.1970   11.4040 C   0  0  0  0  0  0  0  0  0  0  0  0
   10.3870  -17.9620   11.2810 O   0  0  0  0  0  0  0  0  0  0  0  0
   12.6410  -22.6500    6.3610 C   0  0  0  0  0  0  0  0  0  0  0  0
   12.1300  -21.8710    5.5580 O   0  0  0  0  0  0  0  0  0  0  0  0
   12.9290  -24.0760    5.9890 C   0  0  0  0  0  0  0  0  0  0  0  0
  1  2  1  0  0  0  0
  1  9  1  0  0  0  0
  2  3  1  1  0  0  0
  2  4  1  0  0  0  0
  3 12  1  0  0  0  0
  4  5  1  6  0  0  0
  4  6  1  0  0  0  0
  6  7  1  1  0  0  0
  6  8  1  0  0  0  0
  8  9  1  0  0  0  0
  8 10  1  6  0  0  0
 10 11  1  0  0  0  0
 12 13  2  0  0  0  0
 12 14  1  0  0  0  0
M  END
