9GCC_A
 OpenBabel04062520543D

 35 38  0  0  0  0  0  0  0  0999 V2000
  -14.0440  -13.7480   -9.0330 C   0  0  0  0  0  0  0  0  0  0  0  0
  -15.3400  -13.8190   -9.5920 C   0  0  0  0  0  0  0  0  0  0  0  0
  -16.2730  -12.7740   -9.4870 C   0  0  0  0  0  0  0  0  0  0  0  0
  -15.9440  -11.5950   -8.7890 C   0  0  0  0  0  0  0  0  0  0  0  0
  -14.6340  -11.4730   -8.2350 C   0  0  0  0  0  0  0  0  0  0  0  0
  -13.7230  -12.5450   -8.3890 C   0  0  0  0  0  0  0  0  0  0  0  0
  -12.5540  -12.3490   -7.7740 N   0  0  0  0  0  0  0  0  0  0  0  0
  -12.2920  -13.0600   -6.6560 C   0  0  0  0  0  0  0  0  0  0  0  0
  -11.1270  -12.8080   -5.9200 N   0  0  0  0  0  0  0  0  0  0  0  0
  -10.2770  -11.8000   -6.3630 C   0  0  0  0  0  0  0  0  0  0  0  0
  -10.5950  -11.0730   -7.4850 C   0  0  0  0  0  0  0  0  0  0  0  0
  -11.7180  -11.3610   -8.2020 C   0  0  0  0  0  0  0  0  0  0  0  0
   -9.6640   -9.9880   -8.0970 C   0  0  0  0  0  0  0  0  0  0  0  0
  -10.1400   -9.3980   -9.1210 O   0  0  0  0  0  0  0  0  0  0  0  0
   -8.4400   -9.9650   -7.7230 O   0  0  0  0  0  0  0  0  0  0  0  0
   -9.2910  -11.5650   -5.6720 O   0  0  0  0  0  0  0  0  0  0  0  0
  -10.7580  -13.6050   -4.7570 C   0  0  0  0  0  0  0  0  0  0  0  0
  -11.5850  -13.5820   -3.5320 C   0  0  0  0  0  0  0  0  0  0  0  0
  -11.9430  -12.2960   -3.0760 C   0  0  0  0  0  0  0  0  0  0  0  0
  -12.6990  -12.0810   -1.9100 C   0  0  0  0  0  0  0  0  0  0  0  0
  -13.0710  -13.2660   -1.2650 C   0  0  0  0  0  0  0  0  0  0  0  0
  -12.7510  -14.5110   -1.7450 C   0  0  0  0  0  0  0  0  0  0  0  0
  -11.9770  -14.7390   -2.8840 C   0  0  0  0  0  0  0  0  0  0  0  0
  -11.6270  -16.1650   -3.3920 C   0  0  0  0  0  0  0  0  0  0  0  0
  -13.2810  -15.6620   -0.9790 C   0  0  0  0  0  0  0  0  0  0  0  0
  -12.9960  -13.8990   -6.2110 O   0  0  0  0  0  0  0  0  0  0  0  0
  -17.0370  -10.7870   -8.8890 N   0  0  0  0  0  0  0  0  0  0  0  0
  -18.0300  -11.4340   -9.6040 C   0  0  0  0  0  0  0  0  0  0  0  0
  -17.5580  -12.6460   -9.9380 N   0  0  0  0  0  0  0  0  0  0  0  0
  -18.2440  -13.7370  -10.6680 C   0  0  0  0  0  0  0  0  0  0  0  0
  -19.1880  -11.0320   -9.8660 O   0  0  0  0  0  0  0  0  0  0  0  0
  -17.1080   -9.3980   -8.3390 C   0  0  0  0  0  0  0  0  0  0  0  0
  -14.0520  -16.3380   -1.8410 F   0  0  0  0  0  0  0  0  0  0  0  0
  -12.2920  -16.4900   -0.4960 F   0  0  0  0  0  0  0  0  0  0  0  0
  -14.0270  -15.1820    0.0120 F   0  0  0  0  0  0  0  0  0  0  0  0
  1  2  2  0  0  0  0
  1  6  1  0  0  0  0
  2  3  1  0  0  0  0
  3  4  2  0  0  0  0
  3 29  1  0  0  0  0
  4  5  1  0  0  0  0
  4 27  1  0  0  0  0
  5  6  2  0  0  0  0
  6  7  1  0  0  0  0
  7  8  1  0  0  0  0
  7 12  1  0  0  0  0
  8  9  1  0  0  0  0
  8 26  2  0  0  0  0
  9 10  1  0  0  0  0
  9 17  1  0  0  0  0
 10 11  1  0  0  0  0
 10 16  2  0  0  0  0
 11 12  2  0  0  0  0
 11 13  1  0  0  0  0
 13 14  1  0  0  0  0
 13 15  2  0  0  0  0
 17 18  1  0  0  0  0
 18 19  2  0  0  0  0
 18 23  1  0  0  0  0
 19 20  1  0  0  0  0
 20 21  2  0  0  0  0
 21 22  1  0  0  0  0
 22 23  2  0  0  0  0
 22 25  1  0  0  0  0
 23 24  1  0  0  0  0
 25 33  1  0  0  0  0
 25 34  1  0  0  0  0
 25 35  1  0  0  0  0
 27 28  1  0  0  0  0
 27 32  1  0  0  0  0
 28 29  1  0  0  0  0
 28 31  2  0  0  0  0
 29 30  1  0  0  0  0
M  END
