9GCC_A
 OpenBabel04062520543D

 14 14  0  0  0  0  0  0  0  0999 V2000
    6.3920  -23.2030    9.0630 C   0  0  0  0  0  0  0  0  0  0  0  0
    6.8240  -22.1720   10.0990 C   0  0  2  0  0  0  0  0  0  0  0  0
    5.6800  -21.3480   10.3790 N   0  0  0  0  0  0  0  0  0  0  0  0
    8.0120  -21.3450    9.6110 C   0  0  1  0  0  0  0  0  0  0  0  0
    8.3670  -20.4540   10.6610 O   0  0  0  0  0  0  0  0  0  0  0  0
    9.1680  -22.2460    9.2050 C   0  0  2  0  0  0  0  0  0  0  0  0
   10.1650  -21.5090    8.5010 O   0  0  0  0  0  0  0  0  0  0  0  0
    8.6580  -23.3310    8.2630 C   0  0  2  0  0  0  0  0  0  0  0  0
    7.5220  -24.0130    8.8410 O   0  0  0  0  0  0  0  0  0  0  0  0
    9.6740  -24.3970    8.0060 C   0  0  0  0  0  0  0  0  0  0  0  0
    9.9550  -25.0260    9.2530 O   0  0  0  0  0  0  0  0  0  0  0  0
    4.9180  -21.4480   11.4690 C   0  0  0  0  0  0  0  0  0  0  0  0
    4.1330  -20.5530   11.7450 O   0  0  0  0  0  0  0  0  0  0  0  0
    5.0030  -22.7050   12.2870 C   0  0  0  0  0  0  0  0  0  0  0  0
  1  2  1  0  0  0  0
  1  9  1  0  0  0  0
  2  3  1  6  0  0  0
  2  4  1  0  0  0  0
  3 12  1  0  0  0  0
  4  5  1  1  0  0  0
  4  6  1  0  0  0  0
  6  7  1  6  0  0  0
  6  8  1  0  0  0  0
  8  9  1  0  0  0  0
  8 10  1  1  0  0  0
 10 11  1  0  0  0  0
 12 13  2  0  0  0  0
 12 14  1  0  0  0  0
M  END
