9GCD_A
 OpenBabel04062520543D

 35 39  0  0  0  0  0  0  0  0999 V2000
  -10.5440  -11.1020   -7.5140 C   0  0  0  0  0  0  0  0  0  0  0  0
  -11.7640  -11.3860   -8.1050 C   0  0  0  0  0  0  0  0  0  0  0  0
  -12.5890  -12.3720   -7.5760 N   0  0  0  0  0  0  0  0  0  0  0  0
  -12.2090  -13.0810   -6.4320 C   0  0  0  0  0  0  0  0  0  0  0  0
  -10.9760  -12.7930   -5.8300 N   0  0  0  0  0  0  0  0  0  0  0  0
  -10.1550  -11.8060   -6.3790 C   0  0  0  0  0  0  0  0  0  0  0  0
   -9.0850  -11.5740   -5.8310 O   0  0  0  0  0  0  0  0  0  0  0  0
  -10.4720  -13.4920   -4.6280 C   0  0  1  0  0  0  0  0  0  0  0  0
  -11.3820  -13.2210   -3.4280 C   0  0  0  0  0  0  0  0  0  0  0  0
  -11.7650  -12.0330   -2.8290 C   0  0  0  0  0  0  0  0  0  0  0  0
  -12.5990  -12.0490   -1.7200 C   0  0  0  0  0  0  0  0  0  0  0  0
  -13.0540  -13.2580   -1.2100 C   0  0  0  0  0  0  0  0  0  0  0  0
  -12.6690  -14.4500   -1.8050 C   0  0  0  0  0  0  0  0  0  0  0  0
  -13.1600  -15.7920   -1.2530 C   0  0  0  0  0  0  0  0  0  0  0  0
  -11.8350  -14.4240   -2.9090 C   0  0  0  0  0  0  0  0  0  0  0  0
  -11.3010  -15.6150   -3.6990 C   0  0  0  0  0  0  0  0  0  0  0  0
  -10.4770  -15.0230   -4.8420 C   0  0  0  0  0  0  0  0  0  0  0  0
  -12.9620  -13.9370   -5.9780 O   0  0  0  0  0  0  0  0  0  0  0  0
  -13.8160  -12.6150   -8.1880 C   0  0  0  0  0  0  0  0  0  0  0  0
  -14.8250  -11.6890   -7.9880 C   0  0  0  0  0  0  0  0  0  0  0  0
  -16.0660  -11.8750   -8.5680 C   0  0  0  0  0  0  0  0  0  0  0  0
  -16.2980  -12.9950   -9.3580 C   0  0  0  0  0  0  0  0  0  0  0  0
  -15.2880  -13.9250   -9.5640 C   0  0  0  0  0  0  0  0  0  0  0  0
  -14.0400  -13.7360   -8.9770 C   0  0  0  0  0  0  0  0  0  0  0  0
  -17.5560  -12.9090   -9.7760 N   0  0  0  0  0  0  0  0  0  0  0  0
  -18.1110  -11.8070   -9.2930 C   0  0  0  0  0  0  0  0  0  0  0  0
  -17.2080  -11.1340   -8.5320 O   0  0  0  0  0  0  0  0  0  0  0  0
  -19.2640  -11.4400   -9.4960 O   0  0  0  0  0  0  0  0  0  0  0  0
  -18.2260  -13.8950  -10.6430 C   0  0  0  0  0  0  0  0  0  0  0  0
   -9.6580  -10.0170   -8.1430 C   0  0  0  0  0  0  0  0  0  0  0  0
   -8.4560   -9.9430   -7.8140 O   0  0  0  0  0  0  0  0  0  0  0  0
  -10.1860   -9.2840   -8.9970 O   0  0  0  0  0  0  0  0  0  0  0  0
  -13.8080  -16.4460   -2.2050 F   0  0  0  0  0  0  0  0  0  0  0  0
  -13.9680  -15.5830   -0.2230 F   0  0  0  0  0  0  0  0  0  0  0  0
  -12.1230  -16.5200   -0.8590 F   0  0  0  0  0  0  0  0  0  0  0  0
  1  2  2  0  0  0  0
  1  6  1  0  0  0  0
  1 30  1  0  0  0  0
  2  3  1  0  0  0  0
  3  4  1  0  0  0  0
  3 19  1  0  0  0  0
  4  5  1  0  0  0  0
  4 18  2  0  0  0  0
  5  6  1  0  0  0  0
  6  7  2  0  0  0  0
  8  5  1  6  0  0  0
  8  9  1  0  0  0  0
  8 17  1  0  0  0  0
  9 10  2  0  0  0  0
  9 15  1  0  0  0  0
 10 11  1  0  0  0  0
 11 12  2  0  0  0  0
 12 13  1  0  0  0  0
 13 14  1  0  0  0  0
 13 15  2  0  0  0  0
 14 33  1  0  0  0  0
 14 34  1  0  0  0  0
 14 35  1  0  0  0  0
 15 16  1  0  0  0  0
 16 17  1  0  0  0  0
 19 20  2  0  0  0  0
 19 24  1  0  0  0  0
 20 21  1  0  0  0  0
 21 22  2  0  0  0  0
 21 27  1  0  0  0  0
 22 23  1  0  0  0  0
 22 25  1  0  0  0  0
 23 24  2  0  0  0  0
 25 26  1  0  0  0  0
 25 29  1  0  0  0  0
 26 27  1  0  0  0  0
 26 28  2  0  0  0  0
 30 31  1  0  0  0  0
 30 32  2  0  0  0  0
M  END
