9GCD_A
 OpenBabel04062520543D

 14 14  0  0  0  0  0  0  0  0999 V2000
  -22.1810  -18.2850  -18.6450 C   0  0  0  0  0  0  0  0  0  0  0  0
  -22.5620  -18.8920  -20.0000 C   0  0  2  0  0  0  0  0  0  0  0  0
  -21.5220  -19.7980  -20.4550 N   0  0  0  0  0  0  0  0  0  0  0  0
  -22.8120  -17.7820  -21.0240 C   0  0  1  0  0  0  0  0  0  0  0  0
  -23.3360  -18.3390  -22.2330 O   0  0  0  0  0  0  0  0  0  0  0  0
  -23.7500  -16.7330  -20.4290 C   0  0  2  0  0  0  0  0  0  0  0  0
  -23.8820  -15.6560  -21.3440 O   0  0  0  0  0  0  0  0  0  0  0  0
  -23.1590  -16.1830  -19.1300 C   0  0  2  0  0  0  0  0  0  0  0  0
  -23.0880  -17.2860  -18.1940 O   0  0  0  0  0  0  0  0  0  0  0  0
  -23.9450  -15.0430  -18.4960 C   0  0  0  0  0  0  0  0  0  0  0  0
  -25.3370  -15.3350  -18.2280 O   0  0  0  0  0  0  0  0  0  0  0  0
  -21.6560  -21.1390  -20.4280 C   0  0  0  0  0  0  0  0  0  0  0  0
  -22.5060  -21.6940  -19.7370 O   0  0  0  0  0  0  0  0  0  0  0  0
  -20.7030  -21.9390  -21.2640 C   0  0  0  0  0  0  0  0  0  0  0  0
  1  2  1  0  0  0  0
  1  9  1  0  0  0  0
  2  3  1  6  0  0  0
  2  4  1  0  0  0  0
  3 12  1  0  0  0  0
  4  5  1  6  0  0  0
  4  6  1  0  0  0  0
  6  7  1  6  0  0  0
  6  8  1  0  0  0  0
  8  9  1  0  0  0  0
  8 10  1  1  0  0  0
 10 11  1  0  0  0  0
 12 13  2  0  0  0  0
 12 14  1  0  0  0  0
M  END
