9GCD_A
 OpenBabel04062520543D

 14 14  0  0  0  0  0  0  0  0999 V2000
    6.4520  -23.2800    9.0190 C   0  0  0  0  0  0  0  0  0  0  0  0
    6.8690  -22.2850   10.0960 C   0  0  2  0  0  0  0  0  0  0  0  0
    5.7620  -21.4060   10.3610 N   0  0  0  0  0  0  0  0  0  0  0  0
    8.0330  -21.4240    9.6220 C   0  0  1  0  0  0  0  0  0  0  0  0
    8.4000  -20.6020   10.7230 O   0  0  0  0  0  0  0  0  0  0  0  0
    9.1770  -22.2800    9.0980 C   0  0  2  0  0  0  0  0  0  0  0  0
   10.1120  -21.4740    8.3860 O   0  0  0  0  0  0  0  0  0  0  0  0
    8.6430  -23.2900    8.0820 C   0  0  2  0  0  0  0  0  0  0  0  0
    7.5730  -24.0600    8.6590 O   0  0  0  0  0  0  0  0  0  0  0  0
    9.6780  -24.2750    7.6230 C   0  0  0  0  0  0  0  0  0  0  0  0
   10.1520  -24.9770    8.7550 O   0  0  0  0  0  0  0  0  0  0  0  0
    5.0250  -21.3100   11.4590 C   0  0  0  0  0  0  0  0  0  0  0  0
    4.2950  -20.3360   11.6060 O   0  0  0  0  0  0  0  0  0  0  0  0
    5.0570  -22.4580   12.4290 C   0  0  0  0  0  0  0  0  0  0  0  0
  1  2  1  0  0  0  0
  1  9  1  0  0  0  0
  2  3  1  6  0  0  0
  2  4  1  0  0  0  0
  3 12  1  0  0  0  0
  4  5  1  1  0  0  0
  4  6  1  0  0  0  0
  6  7  1  6  0  0  0
  6  8  1  0  0  0  0
  8  9  1  0  0  0  0
  8 10  1  1  0  0  0
 10 11  1  0  0  0  0
 12 13  2  0  0  0  0
 12 14  1  0  0  0  0
M  END
